data_none

_audit_creation_method generated by ABACUS

_cell_length_a 9.22824
_cell_length_b 9.4989
_cell_length_c 10.1909
_cell_angle_alpha 88.7844
_cell_angle_beta 90.9155
_cell_angle_gamma 120.488

_symmetry_space_group_name_H-M 
_symmetry_Int_Tables_number 

loop_
_atom_site_label
_atom_site_fract_x
_atom_site_fract_y
_atom_site_fract_z
Si 0.112576 0.216753 0.247991
Si 0.786121 0.877074 0.246594
Si 0.109347 0.867392 0.241592
Si 0.900914 0.768102 0.497724
Si 0.226926 0.106819 0.49949
Si 0.90396 0.116458 0.50352
Si 0.114334 0.210589 0.747907
Si 0.788984 0.872762 0.746222
Si 0.111343 0.862314 0.741097
Si 0.90239 0.762835 0.997174
Si 0.228077 0.101695 0.998916
Si 0.906007 0.111643 0.00356109
Si 0.110993 0.542195 0.245206
Si 0.44958 0.546126 0.247414
Si 0.44804 0.872387 0.244197
Si 0.902249 0.441948 0.501043
Si 0.563681 0.437287 0.498801
Si 0.564682 0.111246 0.502638
Si 0.112217 0.537192 0.743682
Si 0.450704 0.541573 0.746704
Si 0.44978 0.867403 0.743371
Si 0.903778 0.437918 8.41004e-05
Si 0.564901 0.43193 0.998021
Si 0.567439 0.106725 0.00140448
Si 0.451071 0.22102 0.25044
Si 0.788888 0.225416 0.252495
Si 0.787722 0.551305 0.249564
Si 0.561997 0.762888 0.495456
Si 0.223909 0.758296 0.492966
Si 0.224926 0.432383 0.496764
Si 0.452324 0.216189 0.750385
Si 0.792101 0.221087 0.751394
Si 0.790277 0.546771 0.74823
Si 0.563547 0.75767 0.99496
Si 0.225752 0.753331 0.99233
Si 0.227207 0.427071 0.996069
C 0.113169 0.214447 0.435572
C 0.786987 0.875186 0.434114
C 0.10966 0.865182 0.429694
C 0.900878 0.765886 0.684981
C 0.227554 0.105531 0.686444
C 0.904914 0.114543 0.692222
C 0.115327 0.2097 0.935014
C 0.78863 0.871039 0.933437
C 0.111167 0.860625 0.928283
C 0.899737 0.770927 0.186306
C 0.225838 0.109766 0.188094
C 0.902658 0.119352 0.192722
C 0.11196 0.540273 0.432419
C 0.450143 0.544462 0.435386
C 0.448442 0.871018 0.432139
C 0.902383 0.439911 0.689135
C 0.564102 0.435185 0.686197
C 0.566753 0.109734 0.689699
C 0.113649 0.535663 0.932047
C 0.451362 0.539957 0.934588
C 0.45034 0.866104 0.930849
C 0.901442 0.4451 0.189446
C 0.56189 0.439757 0.186685
C 0.564335 0.114364 0.190533
C 0.451874 0.219827 0.437742
C 0.790241 0.223975 0.44074
C 0.787876 0.549293 0.438106
C 0.562707 0.760998 0.683192
C 0.224389 0.756316 0.680862
C 0.226206 0.430852 0.683938
C 0.454706 0.215182 0.937147
C 0.792617 0.21966 0.939261
C 0.790548 0.544569 0.936558
C 0.561882 0.766589 0.18417
C 0.222219 0.760873 0.18146
C 0.224335 0.435149 0.18502
