data_none

_audit_creation_method generated by ABACUS

_cell_length_a 8.88988
_cell_length_b 8.74
_cell_length_c 8.89217
_cell_angle_alpha 90.6116
_cell_angle_beta 89.3344
_cell_angle_gamma 88.3904

_symmetry_space_group_name_H-M 
_symmetry_Int_Tables_number 

loop_
_atom_site_label
_atom_site_fract_x
_atom_site_fract_y
_atom_site_fract_z
Si 0.370588 0.124832 0.373623
Si 0.366553 0.12671 0.872286
Si 0.362891 0.631402 0.376034
Si 0.358562 0.634175 0.873371
Si 0.870286 0.117493 0.369404
Si 0.866892 0.118919 0.867611
Si 0.862043 0.623752 0.37257
Si 0.858655 0.626683 0.871271
Si 0.369093 0.376293 0.124678
Si 0.364235 0.381156 0.622771
Si 0.360688 0.883581 0.126194
Si 0.358181 0.88635 0.627329
Si 0.86728 0.370285 0.121026
Si 0.865043 0.371004 0.620699
Si 0.860711 0.876505 0.124686
Si 0.857078 0.879231 0.623379
Si 0.121569 0.126397 0.12486
Si 0.119251 0.129178 0.622948
Si 0.115981 0.632824 0.127487
Si 0.112894 0.634671 0.625051
Si 0.622506 0.118433 0.122077
Si 0.617382 0.12194 0.620378
Si 0.614148 0.62488 0.124792
Si 0.612479 0.62889 0.624245
Si 0.11765 0.380673 0.375076
Si 0.113759 0.382592 0.875537
Si 0.110217 0.889189 0.377082
Si 0.10683 0.891899 0.877493
Si 0.615636 0.37344 0.371861
Si 0.614175 0.376247 0.870396
Si 0.608084 0.880777 0.374417
Si 0.606103 0.884652 0.874998
C 0.997983 0.984776 0.994358
C 0.995244 0.98955 0.493109
C 0.990892 0.494499 0.99722
C 0.989242 0.497039 0.495752
C 0.499844 0.993018 0.997566
C 0.4957 0.995471 0.495903
C 0.491853 0.501454 0.000357104
C 0.488891 0.503528 0.498528
C 0.993101 0.242268 0.243853
C 0.989076 0.243729 0.744636
C 0.98731 0.747993 0.248499
C 0.983076 0.753019 0.746031
C 0.494591 0.248167 0.2471
C 0.49106 0.250973 0.747214
C 0.486952 0.755669 0.250998
C 0.48306 0.758455 0.749074
C 0.247481 0.997858 0.248658
C 0.244702 0.00204866 0.746612
C 0.241499 0.505339 0.251909
C 0.238063 0.509275 0.749393
C 0.746773 0.990619 0.245772
C 0.744293 0.995449 0.742654
C 0.741551 0.497326 0.247721
C 0.73649 0.501403 0.74656
C 0.245439 0.249447 0.000133693
C 0.243616 0.25314 0.498111
C 0.23919 0.757524 0.00175632
C 0.235527 0.759564 0.50285
C 0.745262 0.244439 0.997767
C 0.742447 0.245623 0.496231
C 0.737912 0.751536 0.000512698
C 0.734672 0.753517 0.498586
