data_none

_audit_creation_method generated by ABACUS

_cell_length_a 8.68005
_cell_length_b 9.13757
_cell_length_c 8.80926
_cell_angle_alpha 91.3393
_cell_angle_beta 88.7838
_cell_angle_gamma 89.2631

_symmetry_space_group_name_H-M 
_symmetry_Int_Tables_number 

loop_
_atom_site_label
_atom_site_fract_x
_atom_site_fract_y
_atom_site_fract_z
Si 0.378352 0.124639 0.375528
Si 0.371217 0.127592 0.879873
Si 0.376495 0.608878 0.382344
Si 0.367796 0.616173 0.884732
Si 0.891416 0.12101 0.368116
Si 0.886695 0.125608 0.87293
Si 0.88677 0.604655 0.37509
Si 0.880018 0.612265 0.880134
Si 0.380834 0.361796 0.125181
Si 0.371362 0.372363 0.629585
Si 0.376984 0.848673 0.132885
Si 0.370793 0.85284 0.636828
Si 0.891194 0.36001 0.121809
Si 0.885272 0.365159 0.625929
Si 0.890218 0.845296 0.126397
Si 0.88172 0.850988 0.629655
Si 0.124017 0.121999 0.125777
Si 0.118823 0.129924 0.628969
Si 0.123521 0.605922 0.131409
Si 0.11738 0.613084 0.632745
Si 0.638808 0.119863 0.121359
Si 0.631006 0.12375 0.623796
Si 0.632287 0.602648 0.12766
Si 0.628361 0.609881 0.631432
Si 0.120481 0.367207 0.380649
Si 0.115695 0.372807 0.885105
Si 0.11815 0.8539 0.385094
Si 0.112658 0.859012 0.889443
Si 0.629864 0.363267 0.375397
Si 0.62692 0.370664 0.877658
Si 0.627382 0.850751 0.380601
Si 0.625 0.855646 0.885165
C 0.0233351 0.992693 0.988364
C 0.0167764 0.000546541 0.492768
C 0.0178005 0.479501 0.995458
C 0.0148957 0.485348 0.499076
C 0.512153 0.995865 0.996655
C 0.505613 0.00221484 0.4981
C 0.50687 0.483784 0.00234241
C 0.502574 0.488985 0.50423
C 0.0181327 0.240744 0.24493
C 0.0110443 0.243171 0.748888
C 0.0158324 0.724728 0.250852
C 0.00860512 0.731801 0.752219
C 0.506797 0.242 0.24747
C 0.501564 0.248892 0.753219
C 0.503903 0.728148 0.254462
C 0.498539 0.735619 0.757233
C 0.252499 0.00167166 0.250887
C 0.245012 0.00836608 0.754575
C 0.250264 0.486862 0.255947
C 0.244185 0.493156 0.757511
C 0.764081 0.997991 0.245452
C 0.75827 0.0053074 0.745956
C 0.76218 0.483592 0.249541
C 0.755313 0.487586 0.752795
C 0.252516 0.239386 0.00090997
C 0.250158 0.24698 0.503308
C 0.250629 0.725329 0.00505486
C 0.24498 0.730671 0.510096
C 0.764994 0.239006 0.995491
C 0.759716 0.243269 0.499747
C 0.761018 0.723078 0.00148555
C 0.754134 0.729179 0.503357
