data_none

_audit_creation_method generated by ABACUS

_cell_length_a 9.43252
_cell_length_b 9.15553
_cell_length_c 10.1441
_cell_angle_alpha 88.561
_cell_angle_beta 89.9892
_cell_angle_gamma 120.549

_symmetry_space_group_name_H-M 
_symmetry_Int_Tables_number 

loop_
_atom_site_label
_atom_site_fract_x
_atom_site_fract_y
_atom_site_fract_z
Si 0.109967 0.220858 0.245286
Si 0.769542 0.894122 0.238881
Si 0.12063 0.896526 0.237549
Si 0.873138 0.776945 0.486911
Si 0.213287 0.102799 0.495478
Si 0.86316 0.0990606 0.494675
Si 0.104957 0.211262 0.743685
Si 0.764103 0.883888 0.734294
Si 0.116132 0.88911 0.735138
Si 0.867452 0.765931 0.984478
Si 0.209489 0.093503 0.991869
Si 0.858934 0.0904274 0.991868
Si 0.113935 0.557922 0.242098
Si 0.439759 0.559049 0.242525
Si 0.445242 0.894602 0.238847
Si 0.868738 0.438862 0.492733
Si 0.54217 0.438806 0.491546
Si 0.538623 0.101027 0.494962
Si 0.109341 0.548417 0.736621
Si 0.436213 0.548285 0.73893
Si 0.440504 0.88534 0.733497
Si 0.862762 0.427275 0.987719
Si 0.53882 0.429588 0.987757
Si 0.534882 0.0924302 0.990217
Si 0.434182 0.218057 0.244691
Si 0.757393 0.216876 0.245119
Si 0.76312 0.555089 0.242215
Si 0.549167 0.777603 0.487222
Si 0.225417 0.779432 0.485982
Si 0.218429 0.441484 0.491474
Si 0.429106 0.208962 0.742265
Si 0.755753 0.207792 0.742431
Si 0.757998 0.545763 0.73918
Si 0.542835 0.7679 0.983952
Si 0.219551 0.769664 0.985084
Si 0.21388 0.430495 0.986283
C 0.107518 0.216459 0.431375
C 0.767859 0.891215 0.425444
C 0.119468 0.893597 0.424774
C 0.871538 0.770666 0.673821
C 0.211744 0.0988453 0.681626
C 0.860527 0.096338 0.682582
C 0.103528 0.209061 0.928571
C 0.760567 0.878005 0.920591
C 0.113615 0.882938 0.921254
C 0.874938 0.780432 0.178818
C 0.216437 0.108064 0.184323
C 0.867809 0.106578 0.18638
C 0.111485 0.553871 0.428328
C 0.437415 0.551831 0.428578
C 0.443408 0.891592 0.424837
C 0.866137 0.434253 0.677942
C 0.541124 0.436184 0.676913
C 0.538722 0.0985453 0.681614
C 0.108949 0.5459 0.925556
C 0.433167 0.543999 0.924002
C 0.437987 0.883759 0.920657
C 0.869793 0.4424 0.181933
C 0.546061 0.443406 0.182319
C 0.540173 0.105288 0.183953
C 0.432462 0.215683 0.431982
C 0.75664 0.213307 0.431942
C 0.763378 0.551229 0.428795
C 0.547819 0.773507 0.674209
C 0.220905 0.773349 0.673637
C 0.21546 0.435718 0.677859
C 0.425601 0.204707 0.929142
C 0.751054 0.204514 0.928522
C 0.757987 0.543248 0.924348
C 0.550987 0.781642 0.178216
C 0.227759 0.784058 0.179111
C 0.222577 0.446057 0.182163
