data_none

_audit_creation_method generated by ABACUS

_cell_length_a 9.30491
_cell_length_b 9.34307
_cell_length_c 10.3633
_cell_angle_alpha 90.5582
_cell_angle_beta 91.6042
_cell_angle_gamma 120.973

_symmetry_space_group_name_H-M 
_symmetry_Int_Tables_number 

loop_
_atom_site_label
_atom_site_fract_x
_atom_site_fract_y
_atom_site_fract_z
Si 0.122483 0.22983 0.250069
Si 0.802955 0.909579 0.260534
Si 0.127525 0.904768 0.252638
Si 0.921407 0.804579 0.510877
Si 0.240066 0.123371 0.49887
Si 0.917498 0.132419 0.509536
Si 0.133784 0.24172 0.747424
Si 0.814479 0.918374 0.759638
Si 0.140973 0.91347 0.748524
Si 0.933564 0.813579 0.00800501
Si 0.249769 0.130822 0.995415
Si 0.927462 0.139179 0.00470889
Si 0.124356 0.567245 0.252355
Si 0.464562 0.571755 0.256723
Si 0.46459 0.906311 0.257732
Si 0.919057 0.469239 0.509264
Si 0.578341 0.464143 0.505989
Si 0.576093 0.126871 0.503089
Si 0.135391 0.573503 0.745807
Si 0.472858 0.580182 0.751439
Si 0.47888 0.916963 0.753693
Si 0.93281 0.47949 0.0044185
Si 0.591012 0.472113 0.00109892
Si 0.590907 0.138267 0.999908
Si 0.458556 0.233354 0.255753
Si 0.799071 0.239233 0.259671
Si 0.802003 0.575683 0.26089
Si 0.581778 0.799459 0.506694
Si 0.244987 0.795877 0.503505
Si 0.241715 0.460407 0.499353
Si 0.471995 0.244038 0.750768
Si 0.812638 0.248041 0.755681
Si 0.813732 0.584737 0.757565
Si 0.593144 0.807058 0.00455271
Si 0.256043 0.80532 0.997597
Si 0.250638 0.467461 0.997544
C 0.125231 0.234089 0.435534
C 0.807655 0.914131 0.448294
C 0.130461 0.905707 0.440661
C 0.926735 0.808023 0.698643
C 0.241536 0.125909 0.685436
C 0.919575 0.13456 0.69382
C 0.136219 0.244106 0.932528
C 0.822917 0.923105 0.943629
C 0.141956 0.917036 0.937662
C 0.916109 0.800654 0.200504
C 0.232104 0.118615 0.190914
C 0.9088 0.126108 0.196399
C 0.128166 0.5701 0.439457
C 0.465676 0.569897 0.443514
C 0.470835 0.911284 0.445355
C 0.923854 0.472299 0.696021
C 0.584779 0.468271 0.69118
C 0.582558 0.132395 0.69096
C 0.138502 0.579292 0.933677
C 0.479977 0.584096 0.938587
C 0.481072 0.916482 0.942401
C 0.912506 0.463343 0.199552
C 0.573531 0.460191 0.195923
C 0.570374 0.12192 0.195801
C 0.464043 0.23765 0.440083
C 0.7998 0.238854 0.446241
C 0.805076 0.576275 0.447882
C 0.586072 0.803874 0.691144
C 0.248535 0.801034 0.6894
C 0.244986 0.461831 0.688081
C 0.475535 0.245833 0.937812
C 0.815594 0.250185 0.940931
C 0.81604 0.58634 0.943414
C 0.578769 0.796517 0.19764
C 0.235864 0.790806 0.191716
C 0.234967 0.456289 0.19094
