data_none

_audit_creation_method generated by ABACUS

_cell_length_a 8.83209
_cell_length_b 8.6522
_cell_length_c 9.00064
_cell_angle_alpha 89.7825
_cell_angle_beta 91.0714
_cell_angle_gamma 90.1975

_symmetry_space_group_name_H-M 
_symmetry_Int_Tables_number 

loop_
_atom_site_label
_atom_site_fract_x
_atom_site_fract_y
_atom_site_fract_z
Si 0.380415 0.129249 0.373423
Si 0.384996 0.126984 0.866148
Si 0.381249 0.641124 0.372581
Si 0.384663 0.639976 0.864428
Si 0.883188 0.130195 0.377651
Si 0.887575 0.127303 0.870548
Si 0.883379 0.640872 0.376822
Si 0.887988 0.641042 0.869003
Si 0.378843 0.385203 0.126608
Si 0.382157 0.385526 0.618796
Si 0.378645 0.897522 0.123991
Si 0.384055 0.896264 0.619195
Si 0.881239 0.386399 0.130059
Si 0.885573 0.38465 0.624231
Si 0.881557 0.898503 0.129622
Si 0.885947 0.897271 0.622197
Si 0.126724 0.12799 0.123936
Si 0.131226 0.127401 0.616938
Si 0.128075 0.6406 0.122864
Si 0.133098 0.63877 0.614783
Si 0.629658 0.128761 0.12857
Si 0.633442 0.128085 0.621973
Si 0.629102 0.640618 0.127747
Si 0.635041 0.64022 0.621155
Si 0.129306 0.383234 0.369276
Si 0.134169 0.382221 0.86391
Si 0.130522 0.897892 0.36838
Si 0.134783 0.896133 0.862073
Si 0.631293 0.384322 0.374099
Si 0.637096 0.383342 0.867441
Si 0.631851 0.897009 0.372948
Si 0.637122 0.897013 0.867493
C 0.00442429 0.00121447 0.00917734
C 0.00917535 0.00184233 0.502271
C 0.00529377 0.515558 0.00877096
C 0.0107493 0.513629 0.501922
C 0.502703 0.000647474 0.00517267
C 0.506939 9.94653e-05 0.497209
C 0.502942 0.5141 0.00421618
C 0.507601 0.51278 0.496476
C 0.00696104 0.258037 0.254668
C 0.0112157 0.256486 0.748691
C 0.00929406 0.769376 0.254819
C 0.0128382 0.770293 0.74685
C 0.50609 0.25658 0.250496
C 0.509606 0.255881 0.74398
C 0.505854 0.769354 0.249829
C 0.509676 0.768711 0.742075
C 0.253083 0.999829 0.249507
C 0.258133 0.999842 0.741804
C 0.254842 0.512957 0.248472
C 0.258626 0.512924 0.74031
C 0.755327 0.000657276 0.254137
C 0.759908 0.00129234 0.745637
C 0.757347 0.51296 0.252475
C 0.760575 0.512871 0.745253
C 0.251029 0.255883 0.0021031
C 0.257186 0.255537 0.494476
C 0.252691 0.768973 3.52037e-05
C 0.257098 0.767955 0.494696
C 0.753938 0.258911 0.00731527
C 0.758791 0.256391 0.499792
C 0.75516 0.770372 0.00574566
C 0.759125 0.769394 0.498554
