data_none

_audit_creation_method generated by ABACUS

_cell_length_a 8.56738
_cell_length_b 8.55852
_cell_length_c 8.5939
_cell_angle_alpha 90.6298
_cell_angle_beta 91.2091
_cell_angle_gamma 90.7915

_symmetry_space_group_name_H-M 
_symmetry_Int_Tables_number 

loop_
_atom_site_label
_atom_site_fract_x
_atom_site_fract_y
_atom_site_fract_z
Si 0.390232 0.132212 0.388027
Si 0.394285 0.137039 0.89752
Si 0.392755 0.647712 0.390128
Si 0.399323 0.650602 0.90263
Si 0.901743 0.135658 0.394174
Si 0.907767 0.141798 0.907398
Si 0.904314 0.649968 0.399217
Si 0.91259 0.651252 0.90439
Si 0.388982 0.387416 0.136705
Si 0.393804 0.392608 0.646386
Si 0.39319 0.90318 0.137738
Si 0.398382 0.905271 0.645196
Si 0.900761 0.393524 0.136589
Si 0.906598 0.392258 0.651706
Si 0.903606 0.904724 0.143987
Si 0.910989 0.907358 0.65604
Si 0.130629 0.130393 0.129213
Si 0.137265 0.133415 0.640728
Si 0.135076 0.644848 0.13317
Si 0.142164 0.644689 0.644985
Si 0.640963 0.133262 0.136345
Si 0.650006 0.136837 0.645058
Si 0.644429 0.644965 0.136027
Si 0.654999 0.654018 0.649749
Si 0.134064 0.388913 0.38661
Si 0.141344 0.393003 0.898509
Si 0.138402 0.900815 0.389438
Si 0.146105 0.904839 0.902035
Si 0.6475 0.390014 0.39215
Si 0.652597 0.393814 0.902209
Si 0.651734 0.905385 0.395462
Si 0.65539 0.90641 0.906238
C 0.0273025 0.00960942 0.0110365
C 0.0313183 0.0113551 0.521738
C 0.0304589 0.521545 0.0157953
C 0.0348467 0.524906 0.524639
C 0.513763 0.00379581 0.00423394
C 0.519763 0.00702402 0.517314
C 0.517978 0.516792 0.00894185
C 0.522303 0.518502 0.521563
C 0.0305049 0.265344 0.268931
C 0.0355028 0.268643 0.779458
C 0.0312221 0.775977 0.269649
C 0.0411899 0.781897 0.780907
C 0.515275 0.259463 0.261542
C 0.524633 0.265249 0.771942
C 0.522764 0.774254 0.265463
C 0.524673 0.778785 0.777515
C 0.260877 0.00326828 0.260119
C 0.262372 0.00819208 0.769703
C 0.26179 0.514735 0.262502
C 0.268942 0.519387 0.771641
C 0.772039 0.00809644 0.263775
C 0.776938 0.00983952 0.774192
C 0.77372 0.518519 0.265542
C 0.780836 0.519998 0.778753
C 0.256611 0.258789 0.00248284
C 0.264235 0.261526 0.514954
C 0.263342 0.770961 0.00664851
C 0.267616 0.774206 0.516047
C 0.77069 0.260969 0.00906999
C 0.776646 0.264179 0.520292
C 0.776113 0.775049 0.0133621
C 0.781127 0.778629 0.524671
