data_none

_audit_creation_method generated by ABACUS

_cell_length_a 9.41178
_cell_length_b 9.11889
_cell_length_c 10.0696
_cell_angle_alpha 89.3116
_cell_angle_beta 91.0442
_cell_angle_gamma 121.65

_symmetry_space_group_name_H-M 
_symmetry_Int_Tables_number 

loop_
_atom_site_label
_atom_site_fract_x
_atom_site_fract_y
_atom_site_fract_z
Si 0.116257 0.227131 0.249203
Si 0.790486 0.915232 0.251427
Si 0.135768 0.910588 0.245517
Si 0.898095 0.800885 0.503019
Si 0.225528 0.113993 0.500864
Si 0.879669 0.118339 0.506669
Si 0.12206 0.226758 0.749976
Si 0.794026 0.913826 0.752072
Si 0.13978 0.909859 0.746402
Si 0.90288 0.800786 0.0040693
Si 0.229464 0.112693 0.00150296
Si 0.884159 0.117279 0.00674998
Si 0.126353 0.569163 0.247802
Si 0.45346 0.571478 0.250415
Si 0.463054 0.912442 0.248852
Si 0.888931 0.459652 0.50561
Si 0.562201 0.458535 0.502775
Si 0.551945 0.115632 0.503351
Si 0.130228 0.567856 0.747253
Si 0.458196 0.570255 0.750617
Si 0.467368 0.911168 0.749285
Si 0.893384 0.458533 0.00517261
Si 0.566339 0.456713 0.00229035
Si 0.557133 0.115317 0.00424396
Si 0.443357 0.229083 0.25201
Si 0.771293 0.231967 0.254658
Si 0.780319 0.572917 0.25343
Si 0.570983 0.798955 0.500439
Si 0.243984 0.796726 0.496904
Si 0.234461 0.456144 0.499396
Si 0.448565 0.228546 0.752208
Si 0.776632 0.230206 0.755209
Si 0.785011 0.572205 0.754125
Si 0.575301 0.797859 0.000611082
Si 0.249054 0.79667 0.998154
Si 0.238923 0.454635 0.999722
C 0.119054 0.227354 0.437534
C 0.792267 0.914599 0.439941
C 0.137735 0.910683 0.433813
C 0.899831 0.80068 0.691002
C 0.227056 0.1135 0.689002
C 0.881472 0.117975 0.694908
C 0.123456 0.226884 0.938462
C 0.795142 0.912643 0.939566
C 0.141846 0.909021 0.934699
C 0.895037 0.801564 0.191546
C 0.222661 0.115303 0.189093
C 0.877982 0.119315 0.195141
C 0.128081 0.568404 0.436172
C 0.455727 0.57114 0.438461
C 0.464736 0.911745 0.436325
C 0.890652 0.459175 0.693004
C 0.563184 0.45781 0.689791
C 0.554648 0.115069 0.692128
C 0.132472 0.567916 0.936022
C 0.460018 0.569098 0.938645
C 0.468743 0.911307 0.93715
C 0.88616 0.459862 0.19295
C 0.55909 0.457879 0.190289
C 0.549778 0.116613 0.191778
C 0.446076 0.229423 0.440244
C 0.77301 0.231076 0.443342
C 0.783041 0.57255 0.441918
C 0.572764 0.79909 0.688884
C 0.244443 0.795916 0.685218
C 0.236049 0.454681 0.686851
C 0.450423 0.228774 0.94098
C 0.777585 0.230543 0.943188
C 0.786893 0.571974 0.941646
C 0.567645 0.799586 0.188817
C 0.241447 0.797916 0.185552
C 0.231905 0.456188 0.187301
