data_none

_audit_creation_method generated by ABACUS

_cell_length_a 9.01653
_cell_length_b 9.11006
_cell_length_c 9.88802
_cell_angle_alpha 88.5559
_cell_angle_beta 90.1517
_cell_angle_gamma 120.562

_symmetry_space_group_name_H-M 
_symmetry_Int_Tables_number 

loop_
_atom_site_label
_atom_site_fract_x
_atom_site_fract_y
_atom_site_fract_z
Si 0.111809 0.220649 0.251758
Si 0.799164 0.902877 0.24535
Si 0.114211 0.896269 0.243794
Si 0.909527 0.786564 0.501002
Si 0.224338 0.106139 0.508544
Si 0.909307 0.112091 0.508562
Si 0.10954 0.212747 0.762379
Si 0.794453 0.89439 0.755088
Si 0.110744 0.888303 0.754349
Si 0.905564 0.778023 0.0111901
Si 0.220693 0.0967926 0.017711
Si 0.904457 0.103027 0.0181664
Si 0.112906 0.558189 0.248591
Si 0.45573 0.56387 0.249345
Si 0.458009 0.899644 0.245594
Si 0.909608 0.450062 0.506419
Si 0.566542 0.446509 0.504742
Si 0.565917 0.108479 0.507767
Si 0.109151 0.549419 0.756098
Si 0.452012 0.553129 0.757791
Si 0.452749 0.890261 0.754239
Si 0.90479 0.439837 0.0143687
Si 0.563438 0.437112 0.0139546
Si 0.563475 0.100433 0.0175987
Si 0.454433 0.224519 0.251647
Si 0.795537 0.228258 0.251476
Si 0.796819 0.565195 0.2492
Si 0.568546 0.783781 0.500449
Si 0.226709 0.78092 0.49943
Si 0.225319 0.443806 0.504399
Si 0.450244 0.214686 0.762129
Si 0.794514 0.218969 0.76299
Si 0.79301 0.556438 0.758468
Si 0.56373 0.77484 0.00945558
Si 0.222735 0.771835 0.010915
Si 0.221432 0.43432 0.0128156
C 0.110903 0.218034 0.442735
C 0.797007 0.900424 0.436314
C 0.115068 0.894347 0.435911
C 0.907941 0.782319 0.691939
C 0.223146 0.102573 0.699455
C 0.907235 0.109503 0.701175
C 0.107784 0.210777 0.953315
C 0.791455 0.888928 0.945904
C 0.109029 0.884174 0.944781
C 0.911661 0.791693 0.184615
C 0.226676 0.111859 0.189446
C 0.912737 0.118656 0.191675
C 0.111836 0.555551 0.439532
C 0.454343 0.557374 0.440114
C 0.454634 0.895835 0.436144
C 0.907811 0.446329 0.696584
C 0.5651 0.443102 0.695124
C 0.566152 0.105301 0.699591
C 0.108373 0.546806 0.949147
C 0.450006 0.548909 0.948122
C 0.450814 0.888017 0.945642
C 0.911237 0.454001 0.186861
C 0.569307 0.450971 0.188053
C 0.56711 0.112932 0.19024
C 0.453426 0.221039 0.443503
C 0.794398 0.223629 0.443849
C 0.796912 0.561162 0.440823
C 0.56736 0.779891 0.692087
C 0.223064 0.775591 0.691573
C 0.223304 0.438762 0.695277
C 0.44828 0.211794 0.953282
C 0.790516 0.215621 0.953102
C 0.792324 0.552986 0.949566
C 0.570227 0.788732 0.183956
C 0.229454 0.785795 0.183592
C 0.227031 0.447633 0.187068
