data_none

_audit_creation_method generated by ABACUS

_cell_length_a 9.47852
_cell_length_b 9.35592
_cell_length_c 10.3676
_cell_angle_alpha 88.7027
_cell_angle_beta 91.1819
_cell_angle_gamma 121.246

_symmetry_space_group_name_H-M 
_symmetry_Int_Tables_number 

loop_
_atom_site_label
_atom_site_fract_x
_atom_site_fract_y
_atom_site_fract_z
Si 0.115887 0.224217 0.245782
Si 0.790513 0.904176 0.245866
Si 0.127033 0.899203 0.239411
Si 0.901256 0.790426 0.495338
Si 0.226029 0.109664 0.496019
Si 0.891041 0.116502 0.503182
Si 0.119475 0.219961 0.742945
Si 0.794696 0.900343 0.74187
Si 0.131684 0.894878 0.735198
Si 0.905134 0.786681 0.992239
Si 0.229156 0.104992 0.99233
Si 0.893384 0.110575 0.998572
Si 0.122583 0.562276 0.2433
Si 0.455057 0.565148 0.246235
Si 0.458173 0.901245 0.242139
Si 0.895085 0.452917 0.498739
Si 0.562897 0.449792 0.496447
Si 0.55779 0.112177 0.499748
Si 0.12435 0.556364 0.7381
Si 0.456588 0.56032 0.741591
Si 0.46244 0.897302 0.738344
Si 0.899134 0.448695 0.994624
Si 0.567459 0.446294 0.992855
Si 0.561401 0.108562 0.995025
Si 0.447091 0.226082 0.249814
Si 0.779992 0.228908 0.253221
Si 0.785724 0.567442 0.249566
Si 0.569489 0.787672 0.492546
Si 0.237712 0.785057 0.490155
Si 0.231919 0.448273 0.4919
Si 0.450686 0.222169 0.744782
Si 0.783328 0.225747 0.749115
Si 0.788517 0.562011 0.74539
Si 0.571568 0.782363 0.988919
Si 0.24011 0.780186 0.984842
Si 0.234642 0.442574 0.988258
C 0.116711 0.222053 0.432486
C 0.792677 0.902688 0.432247
C 0.129407 0.897382 0.426262
C 0.902234 0.788022 0.681554
C 0.22808 0.109139 0.682419
C 0.891049 0.112523 0.689327
C 0.121599 0.21797 0.927939
C 0.795583 0.898467 0.927577
C 0.131311 0.892453 0.921677
C 0.898986 0.793441 0.186471
C 0.224417 0.112186 0.187464
C 0.888442 0.119115 0.19309
C 0.122205 0.559941 0.428864
C 0.453607 0.561081 0.43213
C 0.46008 0.899246 0.429465
C 0.896486 0.45016 0.685311
C 0.56428 0.447936 0.682281
C 0.558884 0.110718 0.685698
C 0.126733 0.555751 0.924183
C 0.457966 0.558409 0.927583
C 0.463819 0.895728 0.924654
C 0.893566 0.45575 0.189789
C 0.561206 0.452911 0.18635
C 0.555493 0.115345 0.190497
C 0.449866 0.224699 0.436829
C 0.780198 0.226614 0.438643
C 0.786999 0.565295 0.435815
C 0.571016 0.786039 0.678519
C 0.237798 0.783785 0.675241
C 0.232838 0.445519 0.679066
C 0.451676 0.2195 0.9318
C 0.78331 0.221896 0.934573
C 0.789064 0.560143 0.931253
C 0.568709 0.791815 0.183582
C 0.236458 0.787663 0.178897
C 0.229394 0.449958 0.182954
