data_none

_audit_creation_method generated by ABACUS

_cell_length_a 8.75297
_cell_length_b 8.93225
_cell_length_c 8.85529
_cell_angle_alpha 90.059
_cell_angle_beta 91.2096
_cell_angle_gamma 88.5016

_symmetry_space_group_name_H-M 
_symmetry_Int_Tables_number 

loop_
_atom_site_label
_atom_site_fract_x
_atom_site_fract_y
_atom_site_fract_z
Si 0.37979 0.117438 0.375658
Si 0.384157 0.119043 0.870498
Si 0.37198 0.610108 0.376458
Si 0.378392 0.610828 0.872617
Si 0.880701 0.111113 0.381228
Si 0.886599 0.112556 0.879243
Si 0.872976 0.603996 0.383387
Si 0.880278 0.602829 0.874772
Si 0.373545 0.363583 0.130263
Si 0.378249 0.366001 0.625688
Si 0.367349 0.857083 0.128374
Si 0.372489 0.857322 0.622447
Si 0.874161 0.35813 0.131555
Si 0.879947 0.356368 0.629859
Si 0.867516 0.849951 0.134554
Si 0.874479 0.849529 0.632062
Si 0.125509 0.121512 0.124116
Si 0.131345 0.122318 0.621835
Si 0.119773 0.614012 0.125854
Si 0.125514 0.612098 0.622328
Si 0.625225 0.114086 0.130752
Si 0.633493 0.115157 0.625758
Si 0.618951 0.605902 0.129441
Si 0.62827 0.609702 0.62747
Si 0.124091 0.367527 0.372737
Si 0.130606 0.37015 0.870096
Si 0.118481 0.859485 0.372176
Si 0.125256 0.859551 0.86967
Si 0.626196 0.359268 0.378691
Si 0.63168 0.360233 0.873245
Si 0.619598 0.852488 0.377602
Si 0.624789 0.852423 0.874906
C 0.00563872 0.989314 0.0106633
C 0.00884373 0.988045 0.506024
C 0.999189 0.478148 0.0117276
C 0.00298602 0.480089 0.506607
C 0.503109 0.993579 0.00424918
C 0.509218 0.994549 0.502108
C 0.497232 0.485371 0.00596536
C 0.501152 0.48385 0.503232
C 0.00367688 0.233395 0.259504
C 0.00884503 0.23304 0.755455
C 0.994658 0.722599 0.258434
C 0.00394555 0.724909 0.753144
C 0.499756 0.237423 0.252471
C 0.508526 0.240402 0.748155
C 0.496856 0.730922 0.253457
C 0.498711 0.732242 0.750776
C 0.255263 0.996759 0.252391
C 0.256957 0.998024 0.747217
C 0.246194 0.487848 0.251237
C 0.253899 0.488828 0.74628
C 0.756529 0.991601 0.254962
C 0.760154 0.990473 0.751651
C 0.748732 0.480357 0.254834
C 0.754413 0.479919 0.752937
C 0.246424 0.243181 0.00194569
C 0.253514 0.242903 0.49882
C 0.242766 0.733653 0.00251213
C 0.24678 0.733349 0.497402
C 0.74916 0.235568 0.00808848
C 0.754739 0.23544 0.504326
C 0.744572 0.727785 0.00931252
C 0.748615 0.729542 0.504728
