data_none

_audit_creation_method generated by ABACUS

_cell_length_a 8.95088
_cell_length_b 9.30572
_cell_length_c 9.96362
_cell_angle_alpha 88.4206
_cell_angle_beta 91.4868
_cell_angle_gamma 119.029

_symmetry_space_group_name_H-M 
_symmetry_Int_Tables_number 

loop_
_atom_site_label
_atom_site_fract_x
_atom_site_fract_y
_atom_site_fract_z
Si 0.113768 0.216717 0.251486
Si 0.784427 0.871081 0.25175
Si 0.0977589 0.867762 0.242715
Si 0.902584 0.759775 0.505118
Si 0.22994 0.103726 0.507257
Si 0.918078 0.105876 0.514891
Si 0.116199 0.209245 0.758864
Si 0.786188 0.86348 0.756419
Si 0.102135 0.864761 0.74944
Si 0.906374 0.75287 0.0128421
Si 0.236908 0.0993187 0.0124006
Si 0.922292 0.100237 0.0198925
Si 0.102558 0.540078 0.247771
Si 0.447606 0.544287 0.251577
Si 0.440752 0.869641 0.247091
Si 0.910801 0.432839 0.511969
Si 0.565425 0.431347 0.507056
Si 0.573781 0.10509 0.509929
Si 0.107265 0.535572 0.749161
Si 0.453095 0.53766 0.756948
Si 0.444656 0.862865 0.751347
Si 0.914668 0.427276 0.0173789
Si 0.571407 0.425948 0.0120303
Si 0.579213 0.0990275 0.0154923
Si 0.455372 0.215606 0.254245
Si 0.79699 0.215542 0.25876
Si 0.789643 0.543384 0.255837
Si 0.55984 0.758288 0.501909
Si 0.217914 0.758226 0.49677
Si 0.223713 0.431417 0.502236
Si 0.458983 0.210216 0.761413
Si 0.805971 0.212158 0.764728
Si 0.793908 0.537182 0.760979
Si 0.563242 0.75267 0.00743077
Si 0.220165 0.751678 0.00489474
Si 0.227729 0.424377 0.00643927
C 0.112362 0.212155 0.440568
C 0.785577 0.868546 0.442008
C 0.100201 0.866963 0.433672
C 0.904481 0.754999 0.696636
C 0.231613 0.101279 0.697364
C 0.918922 0.103664 0.705891
C 0.118043 0.209302 0.946708
C 0.78696 0.860441 0.945676
C 0.10273 0.860263 0.938116
C 0.899081 0.761638 0.192246
C 0.227843 0.107381 0.190002
C 0.916756 0.110118 0.200697
C 0.104975 0.538247 0.436602
C 0.448912 0.538553 0.441621
C 0.44225 0.86693 0.436995
C 0.911649 0.429767 0.701046
C 0.568062 0.430336 0.696059
C 0.578942 0.104073 0.701029
C 0.110704 0.534072 0.942968
C 0.454128 0.53422 0.945079
C 0.447105 0.863735 0.940981
C 0.906275 0.434962 0.195311
C 0.563943 0.433618 0.191684
C 0.570018 0.10673 0.193496
C 0.457252 0.216252 0.444638
C 0.800605 0.215568 0.448744
C 0.793391 0.540172 0.445417
C 0.562756 0.755449 0.692284
C 0.215823 0.752924 0.687997
C 0.224548 0.427745 0.692339
C 0.459852 0.207897 0.950939
C 0.804887 0.210956 0.954683
C 0.798496 0.537277 0.950972
C 0.555356 0.759731 0.186807
C 0.212935 0.759355 0.184723
C 0.223064 0.434417 0.18798
