data_none

_audit_creation_method generated by ABACUS

_cell_length_a 9.36975
_cell_length_b 9.41257
_cell_length_c 10.3874
_cell_angle_alpha 89.2516
_cell_angle_beta 90.2698
_cell_angle_gamma 119.905

_symmetry_space_group_name_H-M 
_symmetry_Int_Tables_number 

loop_
_atom_site_label
_atom_site_fract_x
_atom_site_fract_y
_atom_site_fract_z
Si 0.111778 0.220208 0.245927
Si 0.777691 0.883012 0.242276
Si 0.10886 0.884779 0.240946
Si 0.889375 0.772177 0.49204
Si 0.222553 0.107038 0.494131
Si 0.892614 0.108195 0.496607
Si 0.110387 0.217323 0.740846
Si 0.77611 0.879712 0.73949
Si 0.110656 0.881366 0.736437
Si 0.886702 0.76766 0.987268
Si 0.219562 0.102034 0.989783
Si 0.888861 0.101816 0.990498
Si 0.11092 0.552475 0.244553
Si 0.44582 0.553369 0.244134
Si 0.443246 0.883942 0.242393
Si 0.889494 0.439665 0.493143
Si 0.5529 0.438952 0.494252
Si 0.55488 0.107436 0.494533
Si 0.108985 0.546715 0.73697
Si 0.441842 0.549289 0.738636
Si 0.443642 0.880862 0.737532
Si 0.889225 0.436937 0.987656
Si 0.554148 0.43487 0.988489
Si 0.555263 0.103661 0.990438
Si 0.443804 0.219767 0.246738
Si 0.778791 0.219818 0.247887
Si 0.77969 0.553606 0.24527
Si 0.552604 0.769882 0.491054
Si 0.220476 0.770505 0.491356
Si 0.220863 0.438921 0.491875
Si 0.444612 0.216974 0.741633
Si 0.780469 0.218296 0.742932
Si 0.778815 0.5489 0.741412
Si 0.552128 0.764834 0.987183
Si 0.218853 0.766665 0.983833
Si 0.217222 0.433353 0.986853
C 0.109895 0.218114 0.431181
C 0.777076 0.883094 0.428923
C 0.10726 0.881438 0.428306
C 0.888753 0.769844 0.678087
C 0.220255 0.104204 0.680527
C 0.889422 0.105928 0.6813
C 0.108614 0.216108 0.925961
C 0.77845 0.879453 0.922326
C 0.106669 0.879974 0.924013
C 0.891642 0.776062 0.182504
C 0.222144 0.109285 0.18586
C 0.891931 0.109343 0.185921
C 0.10956 0.550653 0.430512
C 0.442772 0.547879 0.430244
C 0.44364 0.881783 0.429061
C 0.88926 0.438282 0.680295
C 0.5546 0.437805 0.678596
C 0.555327 0.106651 0.682081
C 0.108008 0.547797 0.923391
C 0.442866 0.54716 0.925147
C 0.441783 0.876876 0.924703
C 0.890592 0.442138 0.184593
C 0.557065 0.443897 0.184284
C 0.5571 0.109943 0.188655
C 0.444105 0.217408 0.432391
C 0.776624 0.21711 0.433757
C 0.777413 0.550661 0.43236
C 0.55239 0.770083 0.675109
C 0.21969 0.770897 0.676091
C 0.220277 0.436965 0.678492
C 0.442089 0.21351 0.928262
C 0.778402 0.214146 0.928032
C 0.776427 0.546926 0.926857
C 0.557635 0.774676 0.183576
C 0.221744 0.775132 0.180501
C 0.223152 0.442714 0.183256
