data_none

_audit_creation_method generated by ABACUS

_cell_length_a 8.51101
_cell_length_b 8.60423
_cell_length_c 8.55271
_cell_angle_alpha 90.8285
_cell_angle_beta 89.882
_cell_angle_gamma 88.9143

_symmetry_space_group_name_H-M 
_symmetry_Int_Tables_number 

loop_
_atom_site_label
_atom_site_fract_x
_atom_site_fract_y
_atom_site_fract_z
Si 0.381637 0.125699 0.381571
Si 0.381448 0.130048 0.890342
Si 0.376575 0.631119 0.385639
Si 0.375692 0.634072 0.893674
Si 0.892463 0.120273 0.380824
Si 0.891779 0.124757 0.890205
Si 0.887216 0.625729 0.38526
Si 0.887407 0.630177 0.893554
Si 0.379223 0.376488 0.129517
Si 0.378286 0.380581 0.638069
Si 0.374735 0.881445 0.133282
Si 0.374261 0.886137 0.641039
Si 0.890296 0.371238 0.129059
Si 0.889953 0.375347 0.63733
Si 0.886327 0.876838 0.13232
Si 0.884534 0.88075 0.641165
Si 0.125924 0.126885 0.127326
Si 0.126055 0.128926 0.636621
Si 0.121744 0.631226 0.131742
Si 0.121386 0.635322 0.639674
Si 0.637139 0.122294 0.127549
Si 0.636811 0.125237 0.635901
Si 0.632513 0.626533 0.131392
Si 0.631852 0.630375 0.639369
Si 0.12364 0.381152 0.383244
Si 0.122725 0.3844 0.892521
Si 0.118995 0.88701 0.387251
Si 0.118293 0.889525 0.895983
Si 0.634505 0.374806 0.383885
Si 0.634539 0.37992 0.891463
Si 0.630784 0.881254 0.386515
Si 0.629282 0.884503 0.895909
C 0.021876 0.989871 0.999406
C 0.021568 0.993741 0.506983
C 0.0174664 0.494775 0.00277847
C 0.0165722 0.499377 0.510781
C 0.511524 0.994932 0.999192
C 0.51048 0.998724 0.507845
C 0.506081 0.500593 0.00309826
C 0.505483 0.504402 0.511362
C 0.0183509 0.244975 0.255574
C 0.0186306 0.248481 0.763399
C 0.0144025 0.750833 0.258085
C 0.0144154 0.753779 0.767262
C 0.50844 0.249495 0.256247
C 0.507553 0.253308 0.763888
C 0.503814 0.754738 0.25853
C 0.502714 0.758711 0.767508
C 0.254816 0.999525 0.25369
C 0.254911 0.00293683 0.762299
C 0.249981 0.504547 0.257579
C 0.249347 0.507879 0.765194
C 0.766225 0.99464 0.2532
C 0.765683 0.997474 0.762444
C 0.760953 0.500324 0.257654
C 0.760862 0.503953 0.765228
C 0.25352 0.250103 0.00172774
C 0.253138 0.253729 0.510763
C 0.248163 0.755759 0.00516449
C 0.247629 0.759305 0.513809
C 0.763804 0.245153 0.000337231
C 0.763601 0.249131 0.508422
C 0.759281 0.750875 0.00524867
C 0.758872 0.754227 0.512687
