data_none

_audit_creation_method generated by ABACUS

_cell_length_a 8.89603
_cell_length_b 8.67474
_cell_length_c 8.96425
_cell_angle_alpha 91.6748
_cell_angle_beta 91.6859
_cell_angle_gamma 89.696

_symmetry_space_group_name_H-M 
_symmetry_Int_Tables_number 

loop_
_atom_site_label
_atom_site_fract_x
_atom_site_fract_y
_atom_site_fract_z
Si 0.375816 0.130932 0.375031
Si 0.382429 0.139991 0.864365
Si 0.37342 0.636872 0.382379
Si 0.381982 0.644436 0.873961
Si 0.869175 0.12911 0.382414
Si 0.877729 0.137663 0.873339
Si 0.867241 0.636887 0.390639
Si 0.876231 0.642926 0.877099
Si 0.371966 0.380753 0.134237
Si 0.378027 0.389348 0.624607
Si 0.371231 0.887141 0.13998
Si 0.378593 0.894655 0.629588
Si 0.864728 0.379952 0.138899
Si 0.872344 0.385847 0.631268
Si 0.863099 0.887421 0.149552
Si 0.872431 0.893885 0.640006
Si 0.12527 0.127859 0.125348
Si 0.132984 0.136337 0.616654
Si 0.125558 0.635493 0.133737
Si 0.131938 0.640615 0.624142
Si 0.617452 0.126339 0.133305
Si 0.626151 0.133974 0.623484
Si 0.616715 0.633203 0.139283
Si 0.627448 0.643295 0.631189
Si 0.127856 0.385651 0.374355
Si 0.135881 0.393759 0.865654
Si 0.127325 0.89225 0.380908
Si 0.135816 0.899335 0.873104
Si 0.622393 0.383204 0.382212
Si 0.628806 0.389849 0.871587
Si 0.619993 0.890284 0.387479
Si 0.627805 0.896951 0.878699
C 0.989167 0.999479 0.0142163
C 0.994049 0.00518193 0.504495
C 0.987614 0.503532 0.0223686
C 0.993463 0.51196 0.512312
C 0.495164 0.998578 0.00634621
C 0.503002 0.00688371 0.498398
C 0.494135 0.50506 0.0137089
C 0.499806 0.51078 0.506358
C 0.990901 0.254863 0.263827
C 0.99794 0.262005 0.752946
C 0.988251 0.760356 0.27109
C 0.997531 0.768147 0.759807
C 0.495797 0.254206 0.25548
C 0.504884 0.263048 0.744945
C 0.497427 0.761765 0.264911
C 0.50132 0.769867 0.754213
C 0.251446 0.00279045 0.250217
C 0.25639 0.0117894 0.739557
C 0.248915 0.50908 0.256392
C 0.25757 0.51719 0.7459
C 0.745311 0.00296884 0.254829
C 0.751664 0.00919165 0.746306
C 0.743268 0.507396 0.262011
C 0.750104 0.513726 0.753341
C 0.245194 0.252068 0.00701131
C 0.253928 0.260663 0.497248
C 0.246632 0.757966 0.0148204
C 0.252288 0.7652 0.503582
C 0.740075 0.251339 0.0139724
C 0.747391 0.257812 0.505158
C 0.739987 0.757182 0.0221563
C 0.745414 0.766076 0.512762
