data_none

_audit_creation_method generated by ABACUS

_cell_length_a 8.76438
_cell_length_b 8.7547
_cell_length_c 8.90807
_cell_angle_alpha 90.702
_cell_angle_beta 91.1113
_cell_angle_gamma 88.4697

_symmetry_space_group_name_H-M 
_symmetry_Int_Tables_number 

loop_
_atom_site_label
_atom_site_fract_x
_atom_site_fract_y
_atom_site_fract_z
Si 0.382176 0.124551 0.37853
Si 0.384716 0.125281 0.876927
Si 0.376451 0.630879 0.382239
Si 0.377649 0.634993 0.879884
Si 0.889827 0.119211 0.381661
Si 0.895192 0.11999 0.880608
Si 0.881838 0.622768 0.384786
Si 0.885365 0.627942 0.884656
Si 0.377183 0.374423 0.129341
Si 0.377946 0.382007 0.627996
Si 0.369929 0.882578 0.134194
Si 0.37384 0.883812 0.632125
Si 0.882683 0.369084 0.136009
Si 0.887451 0.371945 0.634539
Si 0.878122 0.875866 0.137499
Si 0.879826 0.878921 0.635249
Si 0.125067 0.125018 0.125613
Si 0.128902 0.130929 0.622925
Si 0.120619 0.630806 0.129024
Si 0.124323 0.635661 0.624349
Si 0.63459 0.12063 0.132458
Si 0.636833 0.120785 0.629029
Si 0.624168 0.624545 0.135426
Si 0.62994 0.629062 0.633979
Si 0.125001 0.379952 0.375994
Si 0.129718 0.382406 0.875911
Si 0.118572 0.888138 0.378453
Si 0.123212 0.890036 0.877304
Si 0.628953 0.372655 0.381921
Si 0.635922 0.377484 0.878013
Si 0.62324 0.882087 0.383862
Si 0.630833 0.883491 0.883163
C 0.013198 0.985058 0.00950088
C 0.0169734 0.990989 0.507118
C 0.00502985 0.494249 0.0132838
C 0.0124279 0.497368 0.511877
C 0.507608 0.992519 0.00697221
C 0.511021 0.995914 0.502665
C 0.497978 0.501421 0.00884964
C 0.504583 0.503974 0.50598
C 0.011873 0.243016 0.261056
C 0.0151762 0.242111 0.759156
C 0.00637461 0.748297 0.264536
C 0.00915479 0.752635 0.759928
C 0.504481 0.248078 0.253867
C 0.510952 0.251049 0.753778
C 0.499212 0.754603 0.257095
C 0.503466 0.759466 0.754271
C 0.254994 0.998976 0.253371
C 0.258509 0.00282325 0.750747
C 0.249259 0.505023 0.255929
C 0.253674 0.508632 0.751369
C 0.762697 0.991257 0.25802
C 0.766073 0.99588 0.752497
C 0.756494 0.49836 0.259065
C 0.759945 0.499123 0.756583
C 0.248595 0.248928 0.00536223
C 0.256493 0.252533 0.501435
C 0.242219 0.755042 0.0053684
C 0.246905 0.75719 0.505052
C 0.75598 0.244554 0.00944607
C 0.760293 0.246566 0.507978
C 0.748888 0.749768 0.0129949
C 0.751633 0.753332 0.509011
