data_none

_audit_creation_method generated by ABACUS

_cell_length_a 9.29232
_cell_length_b 9.55603
_cell_length_c 10.4782
_cell_angle_alpha 90.5926
_cell_angle_beta 88.3397
_cell_angle_gamma 119.87

_symmetry_space_group_name_H-M 
_symmetry_Int_Tables_number 

loop_
_atom_site_label
_atom_site_fract_x
_atom_site_fract_y
_atom_site_fract_z
Si 0.106268 0.218017 0.244175
Si 0.774978 0.873534 0.239033
Si 0.0988266 0.868669 0.247028
Si 0.884554 0.765901 0.482167
Si 0.216057 0.108546 0.487359
Si 0.894203 0.114815 0.48039
Si 0.0971285 0.216969 0.735671
Si 0.767313 0.872665 0.730327
Si 0.0917011 0.868432 0.738598
Si 0.876638 0.764104 0.973955
Si 0.207217 0.107644 0.978344
Si 0.884269 0.112182 0.969891
Si 0.104146 0.544352 0.246906
Si 0.442323 0.546872 0.241961
Si 0.437235 0.871784 0.243287
Si 0.888754 0.440067 0.480408
Si 0.548671 0.437302 0.485729
Si 0.552662 0.110956 0.483802
Si 0.0930596 0.540923 0.735774
Si 0.430734 0.544971 0.732104
Si 0.429022 0.870324 0.733805
Si 0.881472 0.43893 0.970569
Si 0.541902 0.435435 0.97598
Si 0.545448 0.110931 0.973827
Si 0.442771 0.220158 0.240174
Si 0.782937 0.222424 0.236544
Si 0.779618 0.54823 0.237006
Si 0.546 0.762811 0.48648
Si 0.209383 0.760389 0.492159
Si 0.21243 0.435494 0.488559
Si 0.436291 0.21856 0.731171
Si 0.775838 0.222683 0.727162
Si 0.771318 0.546958 0.729154
Si 0.53693 0.760062 0.978271
Si 0.198995 0.758402 0.981109
Si 0.201415 0.431586 0.979526
C 0.103065 0.217435 0.428577
C 0.773201 0.873724 0.423162
C 0.0957825 0.868133 0.432982
C 0.881408 0.764097 0.667014
C 0.212509 0.108982 0.672336
C 0.889092 0.112863 0.663757
C 0.0941271 0.216132 0.918632
C 0.764995 0.873648 0.913391
C 0.0864909 0.867292 0.923537
C 0.891505 0.767499 0.176544
C 0.221453 0.109468 0.181952
C 0.899274 0.116684 0.172725
C 0.0986028 0.542871 0.430075
C 0.436343 0.543786 0.425829
C 0.433957 0.870293 0.428174
C 0.885487 0.439515 0.665587
C 0.546079 0.435886 0.669123
C 0.550278 0.111622 0.668311
C 0.0905133 0.541158 0.9198
C 0.429081 0.544132 0.916451
C 0.424778 0.869101 0.918834
C 0.894686 0.441032 0.174422
C 0.556134 0.438723 0.178239
C 0.55872 0.111931 0.178426
C 0.441717 0.21891 0.42542
C 0.778485 0.221525 0.419958
C 0.776558 0.548358 0.422254
C 0.542856 0.762028 0.66935
C 0.204013 0.761098 0.675287
C 0.20832 0.433587 0.674187
C 0.431968 0.218332 0.915126
C 0.771025 0.220041 0.910813
C 0.766567 0.546412 0.912578
C 0.554846 0.765693 0.181677
C 0.214824 0.761272 0.183599
C 0.218052 0.435981 0.18303
