data_none

_audit_creation_method generated by ABACUS

_cell_length_a 8.62662
_cell_length_b 8.92983
_cell_length_c 8.94675
_cell_angle_alpha 88.7172
_cell_angle_beta 90.2587
_cell_angle_gamma 88.4678

_symmetry_space_group_name_H-M 
_symmetry_Int_Tables_number 

loop_
_atom_site_label
_atom_site_fract_x
_atom_site_fract_y
_atom_site_fract_z
Si 0.381195 0.113367 0.36694
Si 0.382512 0.1095 0.858202
Si 0.373628 0.604894 0.362569
Si 0.375867 0.599627 0.854601
Si 0.890592 0.106703 0.369243
Si 0.892163 0.102384 0.860542
Si 0.882563 0.598959 0.36425
Si 0.885477 0.592214 0.852552
Si 0.377632 0.362828 0.120149
Si 0.377429 0.357685 0.611507
Si 0.371515 0.854976 0.113843
Si 0.373003 0.849311 0.603635
Si 0.886449 0.356674 0.118652
Si 0.887672 0.349383 0.61219
Si 0.878612 0.849873 0.116482
Si 0.882469 0.843303 0.607406
Si 0.12689 0.120205 0.121151
Si 0.127897 0.114632 0.613387
Si 0.120795 0.612535 0.115769
Si 0.121369 0.605031 0.607328
Si 0.634306 0.11276 0.122554
Si 0.636727 0.10815 0.61407
Si 0.627598 0.6058 0.116453
Si 0.632312 0.601772 0.60857
Si 0.122577 0.363482 0.364562
Si 0.124535 0.359209 0.855232
Si 0.117009 0.856072 0.357601
Si 0.119254 0.849866 0.851406
Si 0.632778 0.356033 0.365817
Si 0.633706 0.350266 0.856644
Si 0.625521 0.848865 0.35901
Si 0.627162 0.842548 0.850105
C 0.0194318 0.988054 0.00229856
C 0.0193447 0.981261 0.493828
C 0.0129178 0.477985 0.997586
C 0.0128882 0.473405 0.488119
C 0.510604 0.993056 0.000350444
C 0.512154 0.988373 0.492257
C 0.503482 0.48551 0.994762
C 0.504184 0.477661 0.487744
C 0.0155149 0.229733 0.24533
C 0.0172525 0.225167 0.734982
C 0.00792389 0.721664 0.239891
C 0.0110876 0.716289 0.729735
C 0.505369 0.235094 0.243569
C 0.50841 0.231467 0.734025
C 0.501475 0.727941 0.240364
C 0.499779 0.72342 0.730495
C 0.255396 0.994144 0.247625
C 0.255655 0.989036 0.737892
C 0.247739 0.485601 0.241344
C 0.25048 0.480883 0.731507
C 0.764708 0.988369 0.246829
C 0.765348 0.981244 0.738298
C 0.75762 0.478549 0.241096
C 0.759007 0.472601 0.73227
C 0.249927 0.2421 0.997729
C 0.252468 0.238471 0.48837
C 0.245229 0.734136 0.993
C 0.246235 0.727626 0.482531
C 0.761048 0.234931 0.998869
C 0.761583 0.22875 0.490091
C 0.754195 0.727141 0.993974
C 0.754111 0.723442 0.485188
