data_none

_audit_creation_method generated by ABACUS

_cell_length_a 8.659
_cell_length_b 8.73195
_cell_length_c 8.66513
_cell_angle_alpha 90.3405
_cell_angle_beta 89.8082
_cell_angle_gamma 89.9781

_symmetry_space_group_name_H-M 
_symmetry_Int_Tables_number 

loop_
_atom_site_label
_atom_site_fract_x
_atom_site_fract_y
_atom_site_fract_z
Si 0.375891 0.125987 0.377365
Si 0.37606 0.127805 0.876871
Si 0.37575 0.623455 0.37901
Si 0.374564 0.624544 0.879779
Si 0.880107 0.126254 0.376134
Si 0.877528 0.127893 0.877925
Si 0.877355 0.624793 0.376899
Si 0.877539 0.624808 0.879443
Si 0.377338 0.375284 0.125408
Si 0.375617 0.377201 0.626204
Si 0.375209 0.870225 0.127547
Si 0.375623 0.874431 0.628639
Si 0.878525 0.372 0.124904
Si 0.878297 0.374165 0.626371
Si 0.881098 0.871706 0.125299
Si 0.876093 0.871336 0.629589
Si 0.124617 0.12474 0.124093
Si 0.1257 0.126067 0.62854
Si 0.123816 0.623353 0.126968
Si 0.125315 0.624324 0.629753
Si 0.62751 0.124159 0.125924
Si 0.626877 0.126353 0.626116
Si 0.62894 0.621104 0.126495
Si 0.625028 0.624867 0.629092
Si 0.125414 0.374133 0.378259
Si 0.122711 0.378673 0.879829
Si 0.125937 0.873121 0.377759
Si 0.12385 0.873104 0.882165
Si 0.628295 0.373947 0.375457
Si 0.625706 0.376737 0.87924
Si 0.62683 0.872164 0.375675
Si 0.625535 0.874475 0.880111
C 0.00439881 0.999862 9.12507e-05
C 0.00388673 0.000301704 0.499232
C 0.005062 0.496972 0.999691
C 0.00398387 0.497662 0.503
C 0.503685 0.000521427 0.999019
C 0.502579 0.999396 0.501195
C 0.502479 0.497291 0.000792587
C 0.498453 0.499897 0.502242
C 0.00196055 0.251115 0.249378
C 0.00232286 0.250992 0.753681
C 0.00372601 0.747441 0.250687
C 0.00385436 0.750443 0.754605
C 0.50258 0.250159 0.252048
C 0.501371 0.250786 0.753016
C 0.502723 0.745885 0.250493
C 0.500541 0.749796 0.753528
C 0.251831 0.999666 0.250552
C 0.248407 0.00219869 0.753857
C 0.251072 0.497832 0.251966
C 0.24914 0.499897 0.75471
C 0.751743 0.00214396 0.250606
C 0.752686 0.000762108 0.751968
C 0.753591 0.497998 0.252373
C 0.7527 0.500048 0.75243
C 0.251939 0.247652 0.00116665
C 0.248876 0.248619 0.501388
C 0.251966 0.746243 0.00292926
C 0.24862 0.746732 0.504017
C 0.753006 0.248769 0.999674
C 0.751868 0.250965 0.500556
C 0.753423 0.745812 0.0011265
C 0.753771 0.7471 0.502545
