data_none

_audit_creation_method generated by ABACUS

_cell_length_a 8.94454
_cell_length_b 8.68865
_cell_length_c 8.69463
_cell_angle_alpha 88.8802
_cell_angle_beta 89.2285
_cell_angle_gamma 91.2379

_symmetry_space_group_name_H-M 
_symmetry_Int_Tables_number 

loop_
_atom_site_label
_atom_site_fract_x
_atom_site_fract_y
_atom_site_fract_z
Si 0.368165 0.126072 0.375341
Si 0.363075 0.12277 0.87856
Si 0.371727 0.632948 0.369721
Si 0.370173 0.62852 0.875676
Si 0.858184 0.131584 0.371642
Si 0.855045 0.128775 0.879168
Si 0.861724 0.637727 0.369009
Si 0.861338 0.63152 0.868659
Si 0.372185 0.381441 0.122359
Si 0.367561 0.378374 0.626477
Si 0.378494 0.88912 0.115238
Si 0.374445 0.884042 0.618155
Si 0.861768 0.388888 0.114206
Si 0.858637 0.380309 0.622635
Si 0.866687 0.892831 0.113131
Si 0.865444 0.887939 0.61917
Si 0.123319 0.12717 0.123673
Si 0.120652 0.122598 0.629559
Si 0.129785 0.633028 0.119515
Si 0.127043 0.625198 0.625198
Si 0.612142 0.131665 0.121624
Si 0.612006 0.127268 0.624923
Si 0.617493 0.63621 0.114154
Si 0.618646 0.636327 0.620788
Si 0.123804 0.376989 0.373565
Si 0.121822 0.373907 0.879969
Si 0.130012 0.882585 0.368127
Si 0.128251 0.877546 0.874749
Si 0.615159 0.380663 0.370659
Si 0.61145 0.376536 0.874929
Si 0.620764 0.887928 0.365359
Si 0.615969 0.882001 0.871118
C 0.983975 0.0132803 0.99322
C 0.978907 0.00674436 0.497643
C 0.989526 0.516811 0.989719
C 0.985094 0.513335 0.492868
C 0.492285 0.00555683 0.995504
C 0.489009 0.00107073 0.502408
C 0.498249 0.511096 0.992026
C 0.493593 0.504592 0.498717
C 0.98361 0.261165 0.244313
C 0.980227 0.256478 0.749065
C 0.986187 0.764465 0.237452
C 0.986655 0.762216 0.741714
C 0.490404 0.253708 0.245832
C 0.490715 0.251198 0.749877
C 0.499032 0.761131 0.241981
C 0.492179 0.757477 0.747912
C 0.245473 0.000141714 0.25269
C 0.238447 0.996466 0.756918
C 0.247875 0.504702 0.246638
C 0.246769 0.500835 0.75059
C 0.735597 0.0067563 0.246842
C 0.73094 0.000811512 0.752358
C 0.739219 0.50961 0.241039
C 0.736828 0.503737 0.74844
C 0.246747 0.256047 0.994761
C 0.244972 0.251118 0.501072
C 0.255196 0.760398 0.990508
C 0.250809 0.755223 0.493755
C 0.73947 0.259688 0.991832
C 0.735666 0.255118 0.497849
C 0.7462 0.766396 0.988476
C 0.741915 0.762492 0.4934
