data_none

_audit_creation_method generated by ABACUS

_cell_length_a 9.53185
_cell_length_b 9.30416
_cell_length_c 10.5088
_cell_angle_alpha 89.0564
_cell_angle_beta 89.8466
_cell_angle_gamma 121.011

_symmetry_space_group_name_H-M 
_symmetry_Int_Tables_number 

loop_
_atom_site_label
_atom_site_fract_x
_atom_site_fract_y
_atom_site_fract_z
Si 0.11263 0.224541 0.242175
Si 0.781789 0.90297 0.236008
Si 0.124147 0.902972 0.236932
Si 0.88773 0.788151 0.482093
Si 0.217737 0.107082 0.487535
Si 0.876181 0.109032 0.488384
Si 0.108236 0.218515 0.731576
Si 0.776898 0.896568 0.727043
Si 0.121348 0.897049 0.726485
Si 0.882057 0.781161 0.972027
Si 0.212645 0.100175 0.977134
Si 0.870536 0.101124 0.975602
Si 0.119031 0.563813 0.240391
Si 0.448503 0.565184 0.238938
Si 0.452565 0.903353 0.236743
Si 0.880904 0.448881 0.484116
Si 0.550157 0.447086 0.485926
Si 0.544987 0.108041 0.487069
Si 0.112905 0.55523 0.72748
Si 0.441386 0.557894 0.727929
Si 0.4492 0.896995 0.72575
Si 0.877467 0.44255 0.972888
Si 0.547748 0.440367 0.974518
Si 0.542032 0.101355 0.976988
Si 0.43954 0.224072 0.242045
Si 0.76894 0.224467 0.241994
Si 0.776534 0.565526 0.238691
Si 0.556958 0.785767 0.482121
Si 0.230718 0.786352 0.483355
Si 0.223731 0.447505 0.484179
Si 0.437045 0.218198 0.731196
Si 0.767255 0.220011 0.732061
Si 0.772171 0.557918 0.729303
Si 0.552759 0.777828 0.972737
Si 0.223962 0.778567 0.970495
Si 0.216503 0.43799 0.974211
C 0.109752 0.22089 0.425476
C 0.779745 0.901735 0.419976
C 0.122028 0.899144 0.42123
C 0.885745 0.785028 0.666011
C 0.215021 0.104049 0.671888
C 0.872602 0.105904 0.670403
C 0.10552 0.215645 0.914047
C 0.777265 0.895429 0.908124
C 0.117559 0.894518 0.911244
C 0.891193 0.793158 0.176306
C 0.219734 0.111606 0.183075
C 0.878125 0.112599 0.181044
C 0.116307 0.561409 0.42444
C 0.444624 0.559603 0.422951
C 0.451959 0.900721 0.420871
C 0.879455 0.44589 0.668532
C 0.550133 0.445174 0.667898
C 0.544006 0.10626 0.672213
C 0.111757 0.554818 0.911639
C 0.440891 0.555312 0.912133
C 0.446691 0.892709 0.91072
C 0.884071 0.452334 0.178868
C 0.555966 0.453687 0.179559
C 0.548581 0.111778 0.183606
C 0.438459 0.220523 0.426411
C 0.76659 0.221379 0.425649
C 0.773265 0.561755 0.423958
C 0.555347 0.784549 0.663879
C 0.227898 0.784938 0.66623
C 0.2213 0.443525 0.669327
C 0.43353 0.214431 0.915455
C 0.763917 0.214918 0.914412
C 0.768874 0.556052 0.912084
C 0.563052 0.79238 0.177721
C 0.232967 0.791188 0.176602
C 0.228234 0.452417 0.179371
