data_none

_audit_creation_method generated by ABACUS

_cell_length_a 9.47562
_cell_length_b 9.02706
_cell_length_c 9.86693
_cell_angle_alpha 89.5184
_cell_angle_beta 89.864
_cell_angle_gamma 120.587

_symmetry_space_group_name_H-M 
_symmetry_Int_Tables_number 

loop_
_atom_site_label
_atom_site_fract_x
_atom_site_fract_y
_atom_site_fract_z
Si 0.112116 0.226966 0.25429
Si 0.772346 0.908442 0.252502
Si 0.126306 0.914376 0.250966
Si 0.873251 0.789536 0.504558
Si 0.213092 0.10652 0.509936
Si 0.859916 0.101395 0.510139
Si 0.109026 0.222496 0.766542
Si 0.767058 0.904424 0.761261
Si 0.125362 0.913111 0.762808
Si 0.871542 0.786238 0.0175248
Si 0.214807 0.106709 0.0205289
Si 0.857375 0.097676 0.0191327
Si 0.116206 0.568755 0.253644
Si 0.439974 0.568198 0.253629
Si 0.449269 0.912191 0.25253
Si 0.866825 0.446349 0.509713
Si 0.543224 0.44918 0.508726
Si 0.53592 0.104716 0.508542
Si 0.113985 0.566313 0.759862
Si 0.438741 0.563793 0.763313
Si 0.445238 0.906242 0.760996
Si 0.862368 0.441579 0.0194032
Si 0.542626 0.445564 0.019409
Si 0.534985 0.101253 0.0184792
Si 0.43341 0.222681 0.252888
Si 0.754692 0.219478 0.253418
Si 0.761951 0.563154 0.253636
Si 0.553765 0.795304 0.50735
Si 0.231998 0.799227 0.504559
Si 0.222707 0.452598 0.508168
Si 0.430169 0.217703 0.765008
Si 0.75491 0.216301 0.764148
Si 0.758922 0.559745 0.76253
Si 0.549975 0.790242 0.0174643
Si 0.225661 0.792429 0.0190439
Si 0.22039 0.448585 0.0158251
C 0.109549 0.225228 0.446118
C 0.769442 0.906655 0.44368
C 0.126188 0.914275 0.443947
C 0.872701 0.786107 0.697901
C 0.211622 0.106294 0.701165
C 0.857462 0.0997887 0.700617
C 0.107512 0.222355 0.955658
C 0.764666 0.900421 0.953141
C 0.122545 0.909082 0.953973
C 0.8737 0.791158 0.189423
C 0.21682 0.111764 0.190646
C 0.862955 0.106841 0.192371
C 0.115931 0.567283 0.443478
C 0.439016 0.56374 0.445374
C 0.448053 0.908891 0.444366
C 0.866479 0.444942 0.699929
C 0.542948 0.448309 0.699033
C 0.540116 0.106397 0.699739
C 0.115573 0.565692 0.954971
C 0.437556 0.560778 0.952387
C 0.445401 0.909038 0.951199
C 0.866932 0.448068 0.189066
C 0.545579 0.450163 0.190658
C 0.537443 0.104733 0.188862
C 0.432093 0.223977 0.444839
C 0.754723 0.217629 0.445839
C 0.762377 0.561361 0.444486
C 0.552458 0.790698 0.698858
C 0.228832 0.793581 0.698301
C 0.221236 0.450065 0.69907
C 0.42915 0.2164 0.954972
C 0.752999 0.21587 0.954803
C 0.761756 0.560264 0.956231
C 0.552164 0.793722 0.187725
C 0.231318 0.798293 0.191306
C 0.225872 0.454885 0.190846
