data_none

_audit_creation_method generated by ABACUS

_cell_length_a 9.2379
_cell_length_b 9.42057
_cell_length_c 10.1783
_cell_angle_alpha 87.8723
_cell_angle_beta 91.643
_cell_angle_gamma 120.104

_symmetry_space_group_name_H-M 
_symmetry_Int_Tables_number 

loop_
_atom_site_label
_atom_site_fract_x
_atom_site_fract_y
_atom_site_fract_z
Si 0.112946 0.216109 0.247048
Si 0.783337 0.876202 0.243155
Si 0.109919 0.873047 0.235157
Si 0.898644 0.764218 0.498937
Si 0.22681 0.102157 0.50045
Si 0.903422 0.109633 0.508391
Si 0.115882 0.206755 0.747411
Si 0.787838 0.869781 0.745008
Si 0.113922 0.861863 0.735751
Si 0.901158 0.753555 0.997207
Si 0.230906 0.0934798 0.000205722
Si 0.904806 0.0992221 0.0099233
Si 0.109481 0.544198 0.241539
Si 0.446845 0.545715 0.24619
Si 0.446796 0.873883 0.241576
Si 0.898465 0.43462 0.504859
Si 0.561297 0.433162 0.49753
Si 0.564436 0.104167 0.507648
Si 0.115176 0.536557 0.739616
Si 0.448325 0.535358 0.748357
Si 0.450076 0.866402 0.740034
Si 0.903357 0.428099 0.00296867
Si 0.565647 0.423534 0.998501
Si 0.566063 0.0951606 0.00452802
Si 0.448197 0.217082 0.25114
Si 0.786307 0.220507 0.255793
Si 0.782843 0.547491 0.251356
Si 0.558926 0.759934 0.494726
Si 0.222373 0.758496 0.488804
Si 0.226357 0.430165 0.496628
Si 0.453557 0.209399 0.751796
Si 0.790784 0.212567 0.754538
Si 0.789633 0.541059 0.749729
Si 0.562556 0.751344 0.994474
Si 0.227043 0.750395 0.987594
Si 0.230355 0.422513 0.995175
C 0.112146 0.209887 0.434731
C 0.784836 0.873731 0.433699
C 0.108448 0.867709 0.424374
C 0.899601 0.761295 0.684997
C 0.229118 0.100992 0.688555
C 0.903233 0.10474 0.696056
C 0.1188 0.20451 0.936611
C 0.786519 0.864776 0.93308
C 0.1145 0.860877 0.921452
C 0.896382 0.76873 0.186785
C 0.22422 0.105857 0.18865
C 0.899157 0.111958 0.197266
C 0.111498 0.541545 0.430525
C 0.451313 0.545334 0.435738
C 0.447794 0.872693 0.427631
C 0.900596 0.43202 0.692195
C 0.564352 0.430771 0.686931
C 0.568458 0.103156 0.693038
C 0.114397 0.531968 0.929248
C 0.455309 0.536095 0.935223
C 0.450759 0.864598 0.928456
C 0.897889 0.44086 0.192358
C 0.559485 0.437107 0.188231
C 0.561663 0.110633 0.193121
C 0.449847 0.215892 0.440979
C 0.789883 0.218864 0.444426
C 0.786627 0.545558 0.439878
C 0.561289 0.758833 0.680364
C 0.224232 0.755081 0.678588
C 0.226092 0.427211 0.6826
C 0.45725 0.208592 0.938028
C 0.793603 0.210731 0.944677
C 0.788931 0.535942 0.937845
C 0.559551 0.767705 0.181479
C 0.2195 0.763971 0.178756
C 0.222684 0.435978 0.183604
