data_none

_audit_creation_method generated by ABACUS

_cell_length_a 8.62547
_cell_length_b 8.77101
_cell_length_c 8.92531
_cell_angle_alpha 88.4105
_cell_angle_beta 90.5674
_cell_angle_gamma 91.0218

_symmetry_space_group_name_H-M 
_symmetry_Int_Tables_number 

loop_
_atom_site_label
_atom_site_fract_x
_atom_site_fract_y
_atom_site_fract_z
Si 0.388869 0.125468 0.373234
Si 0.390981 0.117535 0.870345
Si 0.392722 0.630651 0.366175
Si 0.394689 0.623852 0.863117
Si 0.903564 0.129874 0.37505
Si 0.905421 0.122322 0.872441
Si 0.907563 0.63477 0.368563
Si 0.909779 0.628474 0.864935
Si 0.389915 0.381276 0.121419
Si 0.391411 0.374801 0.618324
Si 0.394058 0.887345 0.113453
Si 0.396705 0.879576 0.612034
Si 0.904158 0.385924 0.122575
Si 0.906423 0.378148 0.620592
Si 0.908442 0.8914 0.116334
Si 0.910927 0.884521 0.613439
Si 0.130152 0.125711 0.123118
Si 0.132742 0.118763 0.620092
Si 0.135073 0.631588 0.115883
Si 0.137738 0.624358 0.612598
Si 0.6449 0.130348 0.125387
Si 0.647052 0.123043 0.622548
Si 0.648787 0.635882 0.118186
Si 0.651721 0.628864 0.616216
Si 0.133123 0.374861 0.368121
Si 0.136433 0.368181 0.865726
Si 0.138675 0.881987 0.360807
Si 0.140408 0.874673 0.858277
Si 0.647259 0.379472 0.370088
Si 0.651101 0.372278 0.86757
Si 0.652121 0.885189 0.363317
Si 0.654729 0.879467 0.861486
C 0.0289355 0.00899418 0.00514831
C 0.030867 0.00268468 0.502205
C 0.0333403 0.515605 0.998548
C 0.035948 0.508239 0.495303
C 0.515226 0.00435043 0.0023505
C 0.51673 0.99759 0.499538
C 0.518574 0.510628 0.995406
C 0.521228 0.503577 0.492638
C 0.0317018 0.258902 0.249256
C 0.0338138 0.251537 0.747383
C 0.0367944 0.763998 0.243333
C 0.0385312 0.757948 0.739756
C 0.51856 0.254386 0.247837
C 0.52004 0.247221 0.745082
C 0.522253 0.75988 0.240532
C 0.523946 0.753121 0.737271
C 0.258218 0.998398 0.249832
C 0.260727 0.991954 0.746802
C 0.263596 0.504546 0.24325
C 0.264585 0.498151 0.739461
C 0.772554 0.00352314 0.253168
C 0.775326 0.997041 0.749107
C 0.777599 0.509353 0.245398
C 0.77946 0.502422 0.742494
C 0.258905 0.254386 0.997931
C 0.262504 0.247577 0.494536
C 0.26422 0.760978 0.990453
C 0.26667 0.754295 0.488358
C 0.77309 0.26028 0.000552975
C 0.776591 0.253244 0.496985
C 0.778081 0.76518 0.993725
C 0.780514 0.758777 0.490469
