data_none

_audit_creation_method generated by ABACUS

_cell_length_a 9.44691
_cell_length_b 9.22658
_cell_length_c 9.82985
_cell_angle_alpha 89.1859
_cell_angle_beta 91.3137
_cell_angle_gamma 121.39

_symmetry_space_group_name_H-M 
_symmetry_Int_Tables_number 

loop_
_atom_site_label
_atom_site_fract_x
_atom_site_fract_y
_atom_site_fract_z
Si 0.118186 0.2259 0.256284
Si 0.784521 0.902956 0.259764
Si 0.13189 0.898314 0.251366
Si 0.891457 0.790185 0.515596
Si 0.224325 0.110759 0.514387
Si 0.877944 0.117127 0.521694
Si 0.122585 0.223911 0.770536
Si 0.787983 0.900734 0.771051
Si 0.138562 0.899152 0.765028
Si 0.89786 0.789001 0.0301827
Si 0.233469 0.113053 0.0266077
Si 0.883611 0.115186 0.0331382
Si 0.12196 0.559156 0.254036
Si 0.449174 0.564853 0.25844
Si 0.457661 0.900682 0.256094
Si 0.88537 0.454255 0.520732
Si 0.557543 0.451512 0.516281
Si 0.55057 0.114772 0.516648
Si 0.12742 0.559129 0.762447
Si 0.456027 0.562387 0.769621
Si 0.463171 0.898564 0.767064
Si 0.889838 0.452748 0.0323313
Si 0.565025 0.451015 0.0284791
Si 0.556839 0.112837 0.0292076
Si 0.442983 0.225908 0.258134
Si 0.767759 0.228228 0.262642
Si 0.774984 0.565192 0.262365
Si 0.56722 0.78924 0.513726
Si 0.242821 0.788528 0.507244
Si 0.233304 0.44913 0.511692
Si 0.447409 0.224944 0.772132
Si 0.776203 0.228031 0.775915
Si 0.780438 0.564564 0.773344
Si 0.57164 0.786922 0.0259739
Si 0.245273 0.785034 0.023856
Si 0.239016 0.447771 0.0214641
C 0.117676 0.224394 0.448047
C 0.784816 0.901948 0.452513
C 0.134762 0.898317 0.44478
C 0.893804 0.787974 0.709194
C 0.225782 0.11123 0.706377
C 0.87914 0.115915 0.713728
C 0.12405 0.224457 0.96025
C 0.788681 0.898654 0.962886
C 0.13956 0.896748 0.956811
C 0.8869 0.78981 0.19853
C 0.222188 0.114272 0.193222
C 0.875288 0.11939 0.202829
C 0.124661 0.55966 0.445047
C 0.451817 0.561164 0.451045
C 0.459569 0.898457 0.449075
C 0.887085 0.453 0.711922
C 0.560279 0.451344 0.706679
C 0.557538 0.11631 0.709135
C 0.132046 0.560558 0.958815
C 0.457979 0.560711 0.960394
C 0.466245 0.901394 0.958454
C 0.879845 0.454142 0.199261
C 0.554978 0.451239 0.197237
C 0.546756 0.112877 0.196042
C 0.444115 0.22823 0.45133
C 0.77089 0.228188 0.455138
C 0.777915 0.564121 0.453782
C 0.570083 0.786249 0.706153
C 0.24201 0.783627 0.701696
C 0.234963 0.446988 0.703844
C 0.449448 0.223977 0.963438
C 0.77723 0.229069 0.966939
C 0.785478 0.56541 0.967045
C 0.561888 0.787221 0.192799
C 0.23722 0.785874 0.192381
C 0.231856 0.450007 0.192728
