data_none

_audit_creation_method generated by ABACUS

_cell_length_a 8.63131
_cell_length_b 8.85499
_cell_length_c 8.94414
_cell_angle_alpha 89.4731
_cell_angle_beta 90.5848
_cell_angle_gamma 91.6713

_symmetry_space_group_name_H-M 
_symmetry_Int_Tables_number 

loop_
_atom_site_label
_atom_site_fract_x
_atom_site_fract_y
_atom_site_fract_z
Si 0.381868 0.127388 0.366758
Si 0.384456 0.125052 0.851315
Si 0.388921 0.61794 0.364909
Si 0.390952 0.616001 0.850032
Si 0.887493 0.134032 0.369349
Si 0.889475 0.131522 0.854719
Si 0.893136 0.627415 0.366459
Si 0.895942 0.622692 0.853529
Si 0.385027 0.3747 0.12112
Si 0.386994 0.37247 0.606468
Si 0.389393 0.862588 0.119325
Si 0.393543 0.863499 0.605044
Si 0.888241 0.379001 0.124318
Si 0.891396 0.377568 0.609476
Si 0.897804 0.871642 0.120942
Si 0.896274 0.868272 0.609847
Si 0.128173 0.123415 0.120767
Si 0.132684 0.122219 0.608803
Si 0.13407 0.616777 0.119317
Si 0.138553 0.613583 0.605604
Si 0.63255 0.13087 0.12574
Si 0.634362 0.128415 0.610849
Si 0.641828 0.621347 0.122164
Si 0.640639 0.620671 0.60846
Si 0.134194 0.367926 0.364803
Si 0.134278 0.368791 0.850061
Si 0.142316 0.860986 0.360117
Si 0.14279 0.857057 0.848828
Si 0.639249 0.376029 0.36486
Si 0.639558 0.375054 0.853365
Si 0.644675 0.865484 0.361173
Si 0.646509 0.865592 0.850437
C 0.00760999 0.0149138 0.00592193
C 0.0111338 0.0109302 0.489647
C 0.0162159 0.504786 0.00254215
C 0.0187364 0.501436 0.48916
C 0.505264 0.0072214 0.0018805
C 0.507844 0.00273051 0.48836
C 0.511861 0.498701 0.000546376
C 0.510902 0.497096 0.485492
C 0.0105191 0.260587 0.247197
C 0.0134576 0.257091 0.735378
C 0.0196955 0.750204 0.24311
C 0.0224272 0.748465 0.732401
C 0.510909 0.251504 0.24598
C 0.510836 0.248688 0.731124
C 0.516889 0.74048 0.240195
C 0.518425 0.740814 0.727762
C 0.252722 0.000323261 0.244384
C 0.254439 0.000225963 0.732761
C 0.260574 0.492773 0.242334
C 0.263004 0.491735 0.73013
C 0.75481 0.0113374 0.246794
C 0.759943 0.00619167 0.733806
C 0.764068 0.50071 0.245799
C 0.766212 0.498548 0.730463
C 0.256359 0.247434 0.999764
C 0.255598 0.244702 0.485775
C 0.263835 0.739438 0.999243
C 0.263842 0.736626 0.484537
C 0.759085 0.257022 0.00279324
C 0.762589 0.255601 0.488304
C 0.766868 0.746482 0.00132755
C 0.770056 0.744847 0.486423
