data_none

_audit_creation_method generated by ABACUS

_cell_length_a 9.53328
_cell_length_b 9.25698
_cell_length_c 10.2935
_cell_angle_alpha 91.5236
_cell_angle_beta 88.6898
_cell_angle_gamma 120.141

_symmetry_space_group_name_H-M 
_symmetry_Int_Tables_number 

loop_
_atom_site_label
_atom_site_fract_x
_atom_site_fract_y
_atom_site_fract_z
Si 0.108951 0.226692 0.248543
Si 0.763644 0.892572 0.249781
Si 0.116305 0.900468 0.256234
Si 0.86873 0.784221 0.494242
Si 0.212714 0.115517 0.493368
Si 0.862823 0.111094 0.484829
Si 0.105154 0.230196 0.742721
Si 0.761449 0.900714 0.744523
Si 0.113129 0.904108 0.751597
Si 0.864127 0.787989 0.987914
Si 0.211136 0.121944 0.987754
Si 0.857298 0.114678 0.981166
Si 0.111736 0.563319 0.253396
Si 0.435015 0.559794 0.249156
Si 0.440354 0.896993 0.252986
Si 0.865352 0.447496 0.49047
Si 0.539541 0.448315 0.493482
Si 0.538435 0.113483 0.490067
Si 0.108006 0.568512 0.746356
Si 0.431382 0.565055 0.744638
Si 0.436584 0.903271 0.746578
Si 0.861866 0.453851 0.984103
Si 0.537937 0.454885 0.986504
Si 0.532841 0.117016 0.983767
Si 0.432015 0.221945 0.243708
Si 0.755176 0.219902 0.241142
Si 0.758869 0.556645 0.245956
Si 0.54464 0.78644 0.497768
Si 0.221057 0.789499 0.500181
Si 0.215909 0.451105 0.497506
Si 0.428682 0.228669 0.739377
Si 0.752773 0.22573 0.734931
Si 0.757244 0.563493 0.737871
Si 0.54022 0.790984 0.99257
Si 0.216338 0.794137 0.994251
Si 0.214705 0.458219 0.990788
C 0.106741 0.228395 0.43385
C 0.761719 0.896116 0.4357
C 0.112342 0.900313 0.442334
C 0.867302 0.786002 0.67922
C 0.21102 0.118879 0.678422
C 0.861316 0.112899 0.672443
C 0.103641 0.234156 0.928594
C 0.758634 0.902907 0.930424
C 0.111666 0.907013 0.935423
C 0.871677 0.779778 0.185943
C 0.215774 0.111218 0.185058
C 0.864441 0.10598 0.177803
C 0.111376 0.566123 0.439451
C 0.434789 0.561964 0.435255
C 0.439438 0.900627 0.439347
C 0.863117 0.448154 0.676265
C 0.538994 0.451344 0.679266
C 0.536169 0.114136 0.675715
C 0.106645 0.570104 0.932341
C 0.4324 0.569171 0.929244
C 0.434777 0.905503 0.932677
C 0.86871 0.444475 0.181693
C 0.541937 0.446012 0.185299
C 0.538332 0.108704 0.181344
C 0.430054 0.225965 0.4317
C 0.75533 0.222864 0.42725
C 0.757038 0.558247 0.432591
C 0.543101 0.789362 0.682746
C 0.218894 0.791088 0.687468
C 0.215465 0.454174 0.683015
C 0.429063 0.230733 0.924022
C 0.751503 0.228203 0.921716
C 0.755082 0.564859 0.925524
C 0.547724 0.783914 0.189804
C 0.221942 0.784788 0.193124
C 0.218422 0.449084 0.189228
