data_none

_audit_creation_method generated by ABACUS

_cell_length_a 9.34115
_cell_length_b 9.36455
_cell_length_c 10.167
_cell_angle_alpha 91.1733
_cell_angle_beta 88.7812
_cell_angle_gamma 118.87

_symmetry_space_group_name_H-M 
_symmetry_Int_Tables_number 

loop_
_atom_site_label
_atom_site_fract_x
_atom_site_fract_y
_atom_site_fract_z
Si 0.105837 0.222233 0.253285
Si 0.764805 0.880062 0.253551
Si 0.0981403 0.887111 0.259907
Si 0.875842 0.769647 0.503421
Si 0.216523 0.111863 0.503727
Si 0.884628 0.10571 0.497457
Si 0.102506 0.226431 0.759776
Si 0.761055 0.88335 0.759148
Si 0.094082 0.890567 0.765242
Si 0.872375 0.773694 0.0100067
Si 0.212358 0.115358 0.00972068
Si 0.879867 0.108696 0.00298492
Si 0.102345 0.554706 0.256688
Si 0.436778 0.551753 0.253919
Si 0.431281 0.883443 0.256163
Si 0.879354 0.437511 0.500364
Si 0.545787 0.440829 0.504379
Si 0.55063 0.108814 0.500635
Si 0.0976175 0.55777 0.761638
Si 0.431558 0.555472 0.758718
Si 0.42771 0.887244 0.762051
Si 0.875551 0.440622 0.00658721
Si 0.542909 0.444621 0.0101465
Si 0.546222 0.112471 0.00621679
Si 0.439271 0.218366 0.2506
Si 0.774062 0.215195 0.247291
Si 0.769387 0.547647 0.250101
Si 0.542362 0.77301 0.507065
Si 0.208434 0.776648 0.510806
Si 0.212641 0.444545 0.506936
Si 0.435796 0.221899 0.755669
Si 0.769277 0.219351 0.75277
Si 0.764968 0.550941 0.755653
Si 0.537742 0.776437 0.0126267
Si 0.204672 0.780501 0.015986
Si 0.208117 0.447629 0.0122143
C 0.104765 0.223568 0.443549
C 0.763958 0.881567 0.443451
C 0.0968865 0.888257 0.449644
C 0.874252 0.770307 0.693704
C 0.215948 0.113925 0.694068
C 0.882753 0.105835 0.687919
C 0.10091 0.227389 0.948975
C 0.759876 0.885117 0.948585
C 0.0918034 0.892167 0.955026
C 0.878736 0.767863 0.188595
C 0.219254 0.109706 0.188867
C 0.886963 0.103131 0.181748
C 0.100428 0.556162 0.446241
C 0.433831 0.552124 0.443682
C 0.429999 0.884087 0.447056
C 0.877802 0.438445 0.690536
C 0.544645 0.442108 0.694039
C 0.548565 0.109331 0.690351
C 0.09696 0.559212 0.951874
C 0.430458 0.556915 0.948725
C 0.426181 0.888639 0.952026
C 0.882462 0.435234 0.185203
C 0.548453 0.438621 0.188173
C 0.552466 0.106294 0.18574
C 0.438951 0.220193 0.44052
C 0.771675 0.216443 0.436745
C 0.767577 0.548652 0.440274
C 0.54106 0.774552 0.696627
C 0.206593 0.778649 0.700221
C 0.211595 0.446024 0.697172
C 0.433835 0.223426 0.945527
C 0.766984 0.21954 0.941991
C 0.763486 0.552458 0.945547
C 0.545476 0.771572 0.191635
C 0.211561 0.774291 0.194256
C 0.214755 0.441964 0.191082
