data_none

_audit_creation_method generated by ABACUS

_cell_length_a 9.13443
_cell_length_b 8.92122
_cell_length_c 8.99726
_cell_angle_alpha 89.9663
_cell_angle_beta 90.2266
_cell_angle_gamma 88.3153

_symmetry_space_group_name_H-M 
_symmetry_Int_Tables_number 

loop_
_atom_site_label
_atom_site_fract_x
_atom_site_fract_y
_atom_site_fract_z
Si 0.363328 0.119643 0.370813
Si 0.362959 0.11683 0.864981
Si 0.357117 0.616832 0.371231
Si 0.354891 0.617711 0.864329
Si 0.850735 0.113225 0.369692
Si 0.852223 0.111289 0.864208
Si 0.842392 0.607011 0.370187
Si 0.841996 0.610136 0.865612
Si 0.36052 0.36685 0.122755
Si 0.357457 0.370539 0.616455
Si 0.352455 0.865133 0.12421
Si 0.352648 0.862971 0.617376
Si 0.845295 0.360359 0.125589
Si 0.846822 0.359491 0.619553
Si 0.840257 0.85768 0.124034
Si 0.838779 0.858378 0.616608
Si 0.118962 0.121118 0.122562
Si 0.11921 0.124169 0.61484
Si 0.114044 0.618165 0.122935
Si 0.113646 0.619495 0.613063
Si 0.607923 0.117202 0.125653
Si 0.606616 0.112886 0.617023
Si 0.596902 0.611786 0.125489
Si 0.599089 0.612476 0.619675
Si 0.116778 0.371182 0.368898
Si 0.117468 0.36999 0.863495
Si 0.109745 0.86904 0.368271
Si 0.110507 0.867897 0.862081
Si 0.599559 0.363037 0.370581
Si 0.603343 0.364254 0.861572
Si 0.593842 0.862154 0.369368
Si 0.597808 0.861557 0.863319
C 0.971814 0.983641 0.00207059
C 0.972098 0.987184 0.494683
C 0.963473 0.483803 0.00241131
C 0.966813 0.48381 0.496888
C 0.486496 0.991596 0.00344
C 0.486725 0.991928 0.494638
C 0.477052 0.492112 0.00121976
C 0.4803 0.490652 0.494233
C 0.968487 0.235566 0.249264
C 0.968338 0.232014 0.742841
C 0.962954 0.731961 0.250057
C 0.961897 0.732547 0.740006
C 0.48096 0.241424 0.246469
C 0.484759 0.241669 0.740296
C 0.475075 0.738329 0.245946
C 0.476896 0.739585 0.737924
C 0.243124 0.997627 0.248439
C 0.242572 0.997808 0.741306
C 0.23646 0.493389 0.248807
C 0.236924 0.494314 0.738431
C 0.729517 0.989245 0.249806
C 0.729393 0.990346 0.739142
C 0.722894 0.487124 0.248104
C 0.722691 0.484275 0.740102
C 0.238109 0.243409 0.00221879
C 0.242576 0.2451 0.493484
C 0.230859 0.741385 0.999214
C 0.23244 0.739698 0.493411
C 0.724469 0.238979 0.00271337
C 0.725473 0.237839 0.496259
C 0.716691 0.734492 0.00166995
C 0.716745 0.735984 0.493596
