data_none

_audit_creation_method generated by ABACUS

_cell_length_a 9.17206
_cell_length_b 9.46621
_cell_length_c 10.5648
_cell_angle_alpha 90.2613
_cell_angle_beta 91.4015
_cell_angle_gamma 120.155

_symmetry_space_group_name_H-M 
_symmetry_Int_Tables_number 

loop_
_atom_site_label
_atom_site_fract_x
_atom_site_fract_y
_atom_site_fract_z
Si 0.119151 0.224727 0.244009
Si 0.797887 0.88914 0.251719
Si 0.112083 0.883495 0.245485
Si 0.919703 0.785694 0.498154
Si 0.238657 0.11841 0.488661
Si 0.926979 0.127981 0.498274
Si 0.128182 0.232266 0.731195
Si 0.806309 0.895212 0.741159
Si 0.122945 0.889202 0.732252
Si 0.927341 0.791114 0.984997
Si 0.246094 0.123352 0.976034
Si 0.933662 0.131084 0.983183
Si 0.114874 0.55352 0.246049
Si 0.459317 0.557782 0.249045
Si 0.454839 0.88606 0.24927
Si 0.921604 0.455849 0.497449
Si 0.575764 0.451339 0.494596
Si 0.580102 0.123369 0.49181
Si 0.123713 0.557472 0.730385
Si 0.465912 0.564241 0.734738
Si 0.465109 0.892515 0.736309
Si 0.932543 0.463161 0.982761
Si 0.587073 0.457451 0.980208
Si 0.591097 0.129089 0.979886
Si 0.46052 0.227935 0.248959
Si 0.804476 0.232062 0.25291
Si 0.802836 0.562591 0.252636
Si 0.573202 0.779362 0.494059
Si 0.231391 0.775503 0.491274
Si 0.234862 0.447398 0.488571
Si 0.47086 0.234741 0.735293
Si 0.816316 0.2397 0.739918
Si 0.811549 0.568117 0.740688
Si 0.582685 0.783981 0.982268
Si 0.240722 0.782343 0.975777
Si 0.241431 0.451552 0.976124
C 0.12032 0.22613 0.426581
C 0.801734 0.892809 0.435755
C 0.113801 0.883615 0.428956
C 0.922655 0.787008 0.681173
C 0.240214 0.119631 0.671997
C 0.927832 0.128941 0.678909
C 0.129412 0.234472 0.913513
C 0.81368 0.89867 0.921874
C 0.123254 0.892314 0.917214
C 0.915156 0.783497 0.19383
C 0.231637 0.114463 0.185994
C 0.919811 0.122698 0.191728
C 0.118119 0.555434 0.428574
C 0.460743 0.556266 0.431806
C 0.459227 0.888258 0.433277
C 0.925664 0.458383 0.68011
C 0.581894 0.45433 0.676059
C 0.584446 0.125653 0.676781
C 0.126738 0.562667 0.913423
C 0.471235 0.566142 0.917796
C 0.46886 0.893128 0.920502
C 0.916516 0.453201 0.193165
C 0.574076 0.450062 0.190192
C 0.57648 0.119334 0.190973
C 0.46307 0.229188 0.431152
C 0.80535 0.232591 0.435732
C 0.80515 0.563708 0.436354
C 0.576546 0.782058 0.675163
C 0.234712 0.779679 0.673418
C 0.237983 0.449281 0.672787
C 0.472695 0.235517 0.918788
C 0.81773 0.240167 0.920906
C 0.813208 0.569075 0.923057
C 0.57174 0.777277 0.191444
C 0.225417 0.773749 0.185448
C 0.229986 0.44557 0.186047
