data_none

_audit_creation_method generated by ABACUS

_cell_length_a 8.68516
_cell_length_b 8.5507
_cell_length_c 8.65657
_cell_angle_alpha 90.6678
_cell_angle_beta 91.1963
_cell_angle_gamma 90.7575

_symmetry_space_group_name_H-M 
_symmetry_Int_Tables_number 

loop_
_atom_site_label
_atom_site_fract_x
_atom_site_fract_y
_atom_site_fract_z
Si 0.384755 0.133021 0.384792
Si 0.389924 0.137571 0.892359
Si 0.387765 0.646255 0.388315
Si 0.393242 0.650085 0.896114
Si 0.889869 0.136498 0.390872
Si 0.895293 0.140096 0.897987
Si 0.893482 0.65084 0.393788
Si 0.898816 0.652776 0.900003
Si 0.384562 0.388631 0.134609
Si 0.388754 0.391518 0.640699
Si 0.387471 0.901869 0.136037
Si 0.392139 0.904702 0.642741
Si 0.888773 0.392899 0.137203
Si 0.894767 0.394712 0.645798
Si 0.891866 0.905791 0.141984
Si 0.898432 0.909353 0.648854
Si 0.129943 0.130294 0.128092
Si 0.134772 0.132831 0.63694
Si 0.132971 0.644128 0.13185
Si 0.137075 0.64662 0.63921
Si 0.633633 0.132706 0.13454
Si 0.640165 0.136895 0.642018
Si 0.637816 0.647262 0.1371
Si 0.644157 0.651192 0.643886
Si 0.132029 0.388748 0.384024
Si 0.138214 0.391982 0.892479
Si 0.136864 0.902099 0.386826
Si 0.142313 0.903929 0.895301
Si 0.638348 0.391105 0.389144
Si 0.644145 0.394697 0.89681
Si 0.642543 0.905834 0.392705
Si 0.646758 0.908732 0.899535
C 0.0122399 0.00812909 0.0107317
C 0.0168746 0.0102118 0.51813
C 0.0150846 0.520864 0.0147883
C 0.0195833 0.523064 0.521341
C 0.506399 0.00287909 0.00461746
C 0.511836 0.00669694 0.512469
C 0.510028 0.51751 0.00895328
C 0.514387 0.519682 0.516069
C 0.0156821 0.264584 0.266447
C 0.0207913 0.268062 0.772377
C 0.0193496 0.779162 0.26972
C 0.0251986 0.781174 0.775578
C 0.509997 0.261036 0.260629
C 0.516689 0.265252 0.767827
C 0.513813 0.774865 0.264981
C 0.518531 0.778101 0.771427
C 0.255831 0.00325885 0.257705
C 0.260294 0.00689297 0.7645
C 0.259167 0.516396 0.260081
C 0.265438 0.520147 0.766917
C 0.760738 0.00693223 0.261455
C 0.766985 0.00964739 0.769002
C 0.764627 0.520743 0.264221
C 0.770652 0.522815 0.772237
C 0.254056 0.258462 0.00371928
C 0.260248 0.262002 0.511443
C 0.258904 0.772043 0.00725417
C 0.263478 0.774949 0.514204
C 0.761318 0.261106 0.00923072
C 0.765354 0.264615 0.517473
C 0.764303 0.775188 0.0133731
C 0.769001 0.778554 0.52068
