data_none

_audit_creation_method generated by ABACUS

_cell_length_a 8.55919
_cell_length_b 8.92902
_cell_length_c 8.54601
_cell_angle_alpha 89.432
_cell_angle_beta 88.6396
_cell_angle_gamma 89.9218

_symmetry_space_group_name_H-M 
_symmetry_Int_Tables_number 

loop_
_atom_site_label
_atom_site_fract_x
_atom_site_fract_y
_atom_site_fract_z
Si 0.380433 0.120322 0.37953
Si 0.3744 0.119676 0.893969
Si 0.378962 0.612092 0.378119
Si 0.374171 0.609795 0.892684
Si 0.89356 0.120277 0.374268
Si 0.887969 0.118822 0.888774
Si 0.892146 0.612586 0.373131
Si 0.887496 0.608528 0.883985
Si 0.383293 0.368668 0.123026
Si 0.376245 0.36583 0.637018
Si 0.383459 0.860265 0.119517
Si 0.377441 0.857036 0.632465
Si 0.89649 0.36838 0.113869
Si 0.89019 0.364342 0.630473
Si 0.894926 0.861229 0.115152
Si 0.890938 0.857477 0.62844
Si 0.127777 0.123008 0.12544
Si 0.121509 0.120105 0.641556
Si 0.12768 0.614241 0.123941
Si 0.120548 0.610758 0.637665
Si 0.639064 0.121715 0.120495
Si 0.634162 0.119898 0.634494
Si 0.638828 0.614741 0.116926
Si 0.635446 0.612874 0.631455
Si 0.123164 0.366997 0.382413
Si 0.117872 0.365555 0.896376
Si 0.124041 0.859004 0.378858
Si 0.117729 0.85594 0.89516
Si 0.637127 0.366023 0.376102
Si 0.630609 0.363511 0.89011
Si 0.636701 0.858884 0.373303
Si 0.630593 0.855637 0.886995
C 0.0274005 0.000865376 0.987586
C 0.0200363 0.997139 0.501526
C 0.0273107 0.490796 0.986059
C 0.0190466 0.488696 0.499879
C 0.513926 0.999149 0.993695
C 0.508278 0.997491 0.508074
C 0.51394 0.492182 0.991168
C 0.506857 0.487845 0.50699
C 0.0232314 0.24338 0.244091
C 0.0169519 0.242048 0.755819
C 0.0224668 0.73613 0.241532
C 0.0170281 0.733112 0.75475
C 0.509383 0.243421 0.249866
C 0.505168 0.242799 0.763087
C 0.511305 0.735673 0.24924
C 0.502526 0.733417 0.76161
C 0.253552 0.99865 0.255173
C 0.246155 0.9972 0.768837
C 0.25266 0.489836 0.252013
C 0.248386 0.488282 0.765571
C 0.767514 0.998985 0.247747
C 0.761037 0.995576 0.76257
C 0.765842 0.49001 0.244882
C 0.760688 0.486911 0.759159
C 0.255696 0.245375 0.995791
C 0.251246 0.244201 0.509441
C 0.256973 0.737022 0.993973
C 0.249885 0.733764 0.506946
C 0.770505 0.245006 0.989521
C 0.763683 0.241912 0.503579
C 0.769536 0.736799 0.987387
C 0.762417 0.735155 0.502448
