data_none

_audit_creation_method generated by ABACUS

_cell_length_a 9.40767
_cell_length_b 9.26849
_cell_length_c 10.348
_cell_angle_alpha 89.3228
_cell_angle_beta 89.3786
_cell_angle_gamma 119.446

_symmetry_space_group_name_H-M 
_symmetry_Int_Tables_number 

loop_
_atom_site_label
_atom_site_fract_x
_atom_site_fract_y
_atom_site_fract_z
Si 0.106296 0.219226 0.243949
Si 0.762153 0.879831 0.235731
Si 0.106863 0.888463 0.239077
Si 0.868877 0.765205 0.483552
Si 0.211696 0.102366 0.489402
Si 0.870089 0.0975207 0.48513
Si 0.0999627 0.212487 0.735445
Si 0.756823 0.875404 0.728685
Si 0.100532 0.879235 0.731756
Si 0.861632 0.756081 0.973264
Si 0.206851 0.0953548 0.980541
Si 0.862152 0.0896889 0.978663
Si 0.104298 0.553012 0.241571
Si 0.432789 0.549173 0.24053
Si 0.434302 0.884142 0.23948
Si 0.867103 0.42932 0.485695
Si 0.538799 0.433224 0.485191
Si 0.540176 0.0988212 0.49057
Si 0.101091 0.54747 0.7318
Si 0.425125 0.541081 0.734118
Si 0.427593 0.878145 0.730258
Si 0.862852 0.425471 0.975478
Si 0.534049 0.426809 0.977044
Si 0.53196 0.0909661 0.979933
Si 0.432888 0.214595 0.240996
Si 0.761638 0.211839 0.24044
Si 0.759832 0.54499 0.239723
Si 0.538719 0.766456 0.485478
Si 0.210675 0.770892 0.485344
Si 0.212852 0.436366 0.48939
Si 0.428089 0.208839 0.734572
Si 0.756405 0.206297 0.73058
Si 0.756767 0.540833 0.729611
Si 0.53258 0.760323 0.976927
Si 0.205831 0.764875 0.975875
Si 0.207304 0.430953 0.979583
C 0.101887 0.214214 0.427809
C 0.759856 0.878192 0.422794
C 0.102017 0.883992 0.424564
C 0.866363 0.763322 0.667094
C 0.210253 0.102584 0.674272
C 0.86694 0.0940338 0.670541
C 0.0991641 0.21087 0.921594
C 0.75212 0.871437 0.913724
C 0.0981667 0.878566 0.914485
C 0.872854 0.768318 0.177127
C 0.215045 0.104699 0.18299
C 0.871971 0.099131 0.17936
C 0.10376 0.552026 0.42727
C 0.433526 0.549653 0.426746
C 0.431996 0.882253 0.423136
C 0.865113 0.426974 0.669713
C 0.538348 0.432052 0.670623
C 0.540025 0.0977868 0.672697
C 0.0968762 0.544514 0.918134
C 0.427772 0.541757 0.917948
C 0.425336 0.876779 0.915039
C 0.871923 0.433665 0.178851
C 0.543061 0.436372 0.180078
C 0.543621 0.103691 0.181344
C 0.430726 0.213518 0.427568
C 0.761556 0.210687 0.426113
C 0.759611 0.544071 0.425096
C 0.536639 0.765952 0.668259
C 0.208965 0.768383 0.672003
C 0.209221 0.434388 0.67229
C 0.428083 0.2079 0.917475
C 0.755076 0.204863 0.917378
C 0.752309 0.536866 0.915275
C 0.544649 0.772907 0.17736
C 0.214562 0.775019 0.180044
C 0.215127 0.440611 0.181724
