data_none

_audit_creation_method generated by ABACUS

_cell_length_a 8.92838
_cell_length_b 8.83056
_cell_length_c 8.71673
_cell_angle_alpha 91.0106
_cell_angle_beta 91.4845
_cell_angle_gamma 89.049

_symmetry_space_group_name_H-M 
_symmetry_Int_Tables_number 

loop_
_atom_site_label
_atom_site_fract_x
_atom_site_fract_y
_atom_site_fract_z
Si 0.369848 0.124461 0.381113
Si 0.375883 0.128304 0.878218
Si 0.365046 0.615754 0.385844
Si 0.370968 0.619817 0.883651
Si 0.858205 0.119991 0.387572
Si 0.863118 0.123928 0.885671
Si 0.852327 0.613842 0.390752
Si 0.859178 0.616148 0.89096
Si 0.365046 0.369039 0.132144
Si 0.370645 0.373351 0.630308
Si 0.358813 0.858398 0.137203
Si 0.366217 0.865062 0.634953
Si 0.851073 0.361304 0.138506
Si 0.858673 0.367436 0.637013
Si 0.849683 0.855817 0.142245
Si 0.852377 0.859229 0.643642
Si 0.122165 0.122547 0.126535
Si 0.130879 0.127607 0.627812
Si 0.116876 0.617105 0.131535
Si 0.125558 0.619863 0.631422
Si 0.609915 0.11866 0.135414
Si 0.61598 0.123196 0.633254
Si 0.607754 0.610527 0.138211
Si 0.610775 0.616657 0.637709
Si 0.124732 0.370873 0.380446
Si 0.128819 0.378799 0.878847
Si 0.1214 0.865058 0.382223
Si 0.1259 0.867523 0.883977
Si 0.612061 0.367852 0.384147
Si 0.616458 0.372914 0.8855
Si 0.606739 0.859199 0.386929
Si 0.612592 0.864998 0.889109
C 0.974175 0.99253 0.0136909
C 0.980912 0.995432 0.510986
C 0.971326 0.483506 0.0167155
C 0.978022 0.48755 0.516893
C 0.488651 0.996164 0.00612057
C 0.49452 0.998657 0.505811
C 0.483693 0.488574 0.0110998
C 0.486714 0.493155 0.509095
C 0.973308 0.242497 0.264114
C 0.980574 0.245201 0.765041
C 0.971563 0.732473 0.267191
C 0.978029 0.738284 0.769058
C 0.489771 0.244577 0.259829
C 0.495061 0.248295 0.757024
C 0.485546 0.73514 0.260616
C 0.49074 0.741835 0.760282
C 0.246805 0.998929 0.252717
C 0.252045 0.00409878 0.753775
C 0.242755 0.491701 0.257335
C 0.249416 0.496665 0.75746
C 0.732289 0.997223 0.259244
C 0.741362 0.999432 0.758206
C 0.730373 0.488161 0.264912
C 0.736713 0.492625 0.762188
C 0.243002 0.242873 0.00564059
C 0.245871 0.246484 0.504013
C 0.238847 0.736092 0.0109192
C 0.24255 0.739464 0.509015
C 0.72824 0.240719 0.0119246
C 0.734881 0.245291 0.510087
C 0.725573 0.731666 0.0163864
C 0.732148 0.735412 0.514909
