data_none

_audit_creation_method generated by ABACUS

_cell_length_a 8.83163
_cell_length_b 8.70137
_cell_length_c 8.63574
_cell_angle_alpha 89.9283
_cell_angle_beta 90.3367
_cell_angle_gamma 91.142

_symmetry_space_group_name_H-M 
_symmetry_Int_Tables_number 

loop_
_atom_site_label
_atom_site_fract_x
_atom_site_fract_y
_atom_site_fract_z
Si 0.379057 0.133124 0.387035
Si 0.379689 0.129667 0.900693
Si 0.384573 0.640352 0.38658
Si 0.38392 0.641845 0.8991
Si 0.88248 0.136759 0.387062
Si 0.88491 0.13536 0.900659
Si 0.886484 0.645405 0.386847
Si 0.887706 0.646187 0.901392
Si 0.381635 0.385608 0.128637
Si 0.38073 0.389412 0.642278
Si 0.385966 0.896945 0.129042
Si 0.387298 0.894296 0.643967
Si 0.882722 0.391174 0.131362
Si 0.885803 0.389867 0.644609
Si 0.891151 0.899855 0.130079
Si 0.89002 0.899892 0.644822
Si 0.127039 0.12923 0.128796
Si 0.126924 0.129831 0.641766
Si 0.133746 0.636995 0.128312
Si 0.133628 0.637272 0.639946
Si 0.631795 0.134573 0.130546
Si 0.63111 0.133277 0.643453
Si 0.633732 0.641581 0.130493
Si 0.636501 0.642874 0.644599
Si 0.131161 0.383693 0.385795
Si 0.132122 0.382961 0.899819
Si 0.135789 0.893759 0.383961
Si 0.1372 0.8936 0.898259
Si 0.63075 0.387619 0.387446
Si 0.63481 0.388135 0.898964
Si 0.636242 0.898548 0.386116
Si 0.640245 0.89837 0.900672
C 0.00581759 0.00921547 0.00204994
C 0.00545969 0.0111947 0.516045
C 0.00854908 0.52064 0.00349491
C 0.0119732 0.520694 0.516534
C 0.50429 0.00445963 0.00340096
C 0.504172 0.00460014 0.515341
C 0.506504 0.516336 0.00257644
C 0.509188 0.51488 0.514236
C 0.00804506 0.266408 0.260698
C 0.007697 0.264214 0.773994
C 0.0141765 0.774699 0.26071
C 0.0140024 0.775503 0.772529
C 0.505273 0.260113 0.255978
C 0.506816 0.260177 0.772068
C 0.511178 0.769375 0.256564
C 0.511973 0.770296 0.769619
C 0.251663 0.00155806 0.258586
C 0.252176 0.00327021 0.771727
C 0.257792 0.51213 0.258565
C 0.258479 0.512375 0.76981
C 0.75432 0.00792622 0.26065
C 0.75601 0.00811972 0.770565
C 0.761158 0.517102 0.258672
C 0.761124 0.516751 0.771623
C 0.252757 0.256421 0.000942079
C 0.255965 0.257137 0.513161
C 0.259388 0.766418 0.999236
C 0.260477 0.765542 0.51543
C 0.755791 0.263469 0.0026476
C 0.757762 0.261408 0.516628
C 0.76087 0.772446 0.00259341
C 0.761816 0.772041 0.514321
