data_none

_audit_creation_method generated by ABACUS

_cell_length_a 9.21924
_cell_length_b 9.23401
_cell_length_c 10.0774
_cell_angle_alpha 88.6338
_cell_angle_beta 91.6793
_cell_angle_gamma 120.356

_symmetry_space_group_name_H-M 
_symmetry_Int_Tables_number 

loop_
_atom_site_label
_atom_site_fract_x
_atom_site_fract_y
_atom_site_fract_z
Si 0.117637 0.225975 0.253351
Si 0.799409 0.906527 0.255687
Si 0.119938 0.904947 0.245814
Si 0.915814 0.791891 0.512641
Si 0.23323 0.110062 0.511296
Si 0.915319 0.113862 0.521759
Si 0.123732 0.22229 0.764699
Si 0.806587 0.904001 0.766371
Si 0.126799 0.901207 0.75651
Si 0.923673 0.789251 0.0243037
Si 0.240424 0.107199 0.0216956
Si 0.921157 0.109678 0.0310571
Si 0.119238 0.565705 0.250528
Si 0.459945 0.566908 0.254647
Si 0.458975 0.905416 0.250736
Si 0.915026 0.453012 0.516549
Si 0.573954 0.451988 0.512658
Si 0.573462 0.111891 0.515967
Si 0.124233 0.560163 0.759095
Si 0.464831 0.56356 0.764217
Si 0.466284 0.902139 0.761122
Si 0.922746 0.450193 0.0268747
Si 0.582027 0.448846 0.0231608
Si 0.580722 0.109491 0.0260717
Si 0.456786 0.226457 0.258849
Si 0.798358 0.227042 0.26325
Si 0.799361 0.56786 0.25944
Si 0.576148 0.791122 0.508643
Si 0.236325 0.789503 0.504761
Si 0.234623 0.451365 0.506725
Si 0.464146 0.223177 0.768275
Si 0.805911 0.226177 0.773356
Si 0.806054 0.563882 0.770332
Si 0.580684 0.786551 0.0199068
Si 0.240988 0.78614 0.0136898
Si 0.239495 0.445385 0.0172503
C 0.119981 0.224492 0.445071
C 0.802705 0.905423 0.447031
C 0.121887 0.902647 0.438986
C 0.919052 0.790576 0.705318
C 0.236597 0.110383 0.703089
C 0.916927 0.110974 0.712909
C 0.126644 0.221304 0.954743
C 0.80993 0.903435 0.956903
C 0.127392 0.89884 0.948594
C 0.91241 0.794876 0.195085
C 0.229921 0.112406 0.193471
C 0.911034 0.116522 0.202336
C 0.120013 0.563517 0.441346
C 0.459785 0.563218 0.446051
C 0.461946 0.90367 0.443213
C 0.917486 0.451535 0.708926
C 0.576763 0.449693 0.704014
C 0.575369 0.110908 0.707923
C 0.127117 0.560065 0.950481
C 0.467647 0.561691 0.956134
C 0.468375 0.900562 0.953187
C 0.912133 0.45486 0.198849
C 0.570778 0.453709 0.193317
C 0.569453 0.114264 0.198411
C 0.461166 0.224762 0.451318
C 0.800147 0.225675 0.454221
C 0.80215 0.56642 0.451456
C 0.578412 0.789148 0.6993
C 0.236915 0.788962 0.695259
C 0.23678 0.448396 0.699963
C 0.466202 0.221343 0.960561
C 0.806739 0.222195 0.964786
C 0.806647 0.562184 0.961026
C 0.573788 0.794267 0.191321
C 0.232648 0.791506 0.184752
C 0.230075 0.452064 0.188923
