data_none

_audit_creation_method generated by ABACUS

_cell_length_a 8.70299
_cell_length_b 9.0691
_cell_length_c 8.86703
_cell_angle_alpha 88.523
_cell_angle_beta 88.4887
_cell_angle_gamma 91.4843

_symmetry_space_group_name_H-M 
_symmetry_Int_Tables_number 

loop_
_atom_site_label
_atom_site_fract_x
_atom_site_fract_y
_atom_site_fract_z
Si 0.378838 0.123521 0.369675
Si 0.371383 0.115387 0.870354
Si 0.385747 0.611909 0.362816
Si 0.376883 0.605531 0.862075
Si 0.889799 0.130446 0.361318
Si 0.883392 0.122349 0.861352
Si 0.895452 0.617732 0.354764
Si 0.888486 0.612438 0.856048
Si 0.386965 0.370265 0.114618
Si 0.378083 0.367018 0.615599
Si 0.392284 0.860001 0.108277
Si 0.38543 0.852425 0.611034
Si 0.895355 0.377154 0.108031
Si 0.889493 0.369632 0.609242
Si 0.904465 0.865645 0.102019
Si 0.895622 0.858943 0.602953
Si 0.127279 0.122931 0.121905
Si 0.119398 0.117856 0.621438
Si 0.134883 0.610806 0.115257
Si 0.127417 0.604387 0.614004
Si 0.639672 0.129868 0.115263
Si 0.630271 0.122083 0.61534
Si 0.643264 0.616388 0.108896
Si 0.638391 0.611223 0.610114
Si 0.127875 0.364174 0.369144
Si 0.120571 0.356336 0.869762
Si 0.134206 0.853701 0.361166
Si 0.126816 0.847026 0.863203
Si 0.635528 0.369939 0.361619
Si 0.630894 0.363517 0.861202
Si 0.641942 0.859331 0.354664
Si 0.637946 0.853771 0.856548
C 0.0201908 0.0127096 0.985584
C 0.0129406 0.00855946 0.486881
C 0.0256616 0.503736 0.980997
C 0.0204435 0.497066 0.480146
C 0.511291 0.005888 0.994443
C 0.503315 0.999824 0.494272
C 0.515885 0.496885 0.987084
C 0.510512 0.489591 0.48686
C 0.0205797 0.256315 0.233613
C 0.0110988 0.247388 0.734893
C 0.027676 0.744043 0.22791
C 0.0192194 0.738559 0.726925
C 0.509609 0.248199 0.238094
C 0.501959 0.242012 0.74073
C 0.517105 0.737184 0.232502
C 0.509608 0.731463 0.733167
C 0.251285 0.99931 0.247762
C 0.244318 0.995315 0.748145
C 0.259142 0.489398 0.241227
C 0.251534 0.483342 0.739631
C 0.76095 0.00641713 0.241126
C 0.754408 0.00130975 0.738635
C 0.770536 0.495695 0.233269
C 0.761367 0.489923 0.734045
C 0.257283 0.247311 0.993925
C 0.252293 0.241469 0.492783
C 0.26586 0.736806 0.985563
C 0.258413 0.729548 0.488999
C 0.768212 0.25586 0.987178
C 0.761145 0.247708 0.487515
C 0.774941 0.743997 0.980488
C 0.768387 0.737609 0.479552
