data_none

_audit_creation_method generated by ABACUS

_cell_length_a 9.11571
_cell_length_b 9.20726
_cell_length_c 10.2891
_cell_angle_alpha 89.5982
_cell_angle_beta 89.6862
_cell_angle_gamma 118.26

_symmetry_space_group_name_H-M 
_symmetry_Int_Tables_number 

loop_
_atom_site_label
_atom_site_fract_x
_atom_site_fract_y
_atom_site_fract_z
Si 0.106277 0.219349 0.246113
Si 0.768372 0.875731 0.242115
Si 0.092468 0.885375 0.243631
Si 0.881875 0.762356 0.489399
Si 0.219903 0.105037 0.493327
Si 0.895174 0.0951707 0.490534
Si 0.102613 0.213659 0.74085
Si 0.765932 0.87296 0.737147
Si 0.0899047 0.881368 0.738157
Si 0.877887 0.757622 0.983394
Si 0.216767 0.101475 0.987755
Si 0.892235 0.0913696 0.986264
Si 0.0996021 0.552839 0.245366
Si 0.437249 0.547371 0.24442
Si 0.430654 0.880709 0.243081
Si 0.888829 0.428913 0.490323
Si 0.54974 0.432315 0.491012
Si 0.556857 0.0994208 0.493164
Si 0.0955745 0.549127 0.739023
Si 0.433487 0.544066 0.739179
Si 0.426786 0.878 0.737425
Si 0.885282 0.425843 0.984568
Si 0.546421 0.429137 0.985347
Si 0.554135 0.0957491 0.986733
Si 0.443739 0.213575 0.24488
Si 0.781396 0.209191 0.244105
Si 0.774889 0.542833 0.243333
Si 0.543532 0.766599 0.490358
Si 0.206445 0.771945 0.491154
Si 0.212346 0.437502 0.49286
Si 0.440353 0.210797 0.740317
Si 0.779504 0.206136 0.737215
Si 0.771763 0.539765 0.737116
Si 0.539576 0.762321 0.985785
Si 0.202309 0.767792 0.984862
Si 0.210201 0.434251 0.987333
C 0.10466 0.217522 0.431676
C 0.766371 0.874921 0.428598
C 0.0901523 0.884223 0.429645
C 0.879957 0.760711 0.674873
C 0.217481 0.1038 0.677966
C 0.894508 0.0933772 0.677723
C 0.102304 0.215003 0.926478
C 0.763321 0.872437 0.923113
C 0.0879932 0.880523 0.923889
C 0.884167 0.76382 0.180723
C 0.221427 0.105791 0.184997
C 0.898119 0.0970986 0.182588
C 0.0987458 0.551618 0.430874
C 0.436046 0.545977 0.430508
C 0.429008 0.880386 0.429325
C 0.886515 0.427406 0.676247
C 0.548258 0.431109 0.677128
C 0.556211 0.097369 0.678664
C 0.0946837 0.546908 0.925303
C 0.432477 0.542952 0.925146
C 0.426098 0.877 0.923096
C 0.891388 0.431008 0.182026
C 0.551166 0.434916 0.183097
C 0.559639 0.101955 0.184208
C 0.443135 0.213423 0.430862
C 0.781345 0.208468 0.43002
C 0.772467 0.540641 0.430275
C 0.542469 0.765553 0.676034
C 0.203656 0.769691 0.676734
C 0.211873 0.437046 0.67818
C 0.440826 0.209629 0.924549
C 0.778298 0.20534 0.924289
C 0.771179 0.538019 0.924267
C 0.545753 0.769227 0.182036
C 0.20723 0.772821 0.183333
C 0.214445 0.439422 0.18362
