data_none

_audit_creation_method generated by ABACUS

_cell_length_a 9.04445
_cell_length_b 9.29781
_cell_length_c 10.1161
_cell_angle_alpha 91.273
_cell_angle_beta 89.9652
_cell_angle_gamma 118.653

_symmetry_space_group_name_H-M 
_symmetry_Int_Tables_number 

loop_
_atom_site_label
_atom_site_fract_x
_atom_site_fract_y
_atom_site_fract_z
Si 0.111057 0.223888 0.253533
Si 0.779441 0.877937 0.2598
Si 0.0962906 0.883515 0.25954
Si 0.898029 0.773737 0.510142
Si 0.228082 0.116336 0.503543
Si 0.915369 0.115171 0.502611
Si 0.11482 0.229441 0.75602
Si 0.784761 0.888908 0.763494
Si 0.0996412 0.889026 0.763294
Si 0.900807 0.780366 0.012343
Si 0.233757 0.124758 0.00666941
Si 0.91626 0.120752 0.0068912
Si 0.102078 0.552745 0.257834
Si 0.443881 0.551004 0.256581
Si 0.438594 0.881289 0.259744
Si 0.905283 0.444124 0.507506
Si 0.562269 0.444463 0.507021
Si 0.572115 0.115531 0.504707
Si 0.10605 0.560758 0.759257
Si 0.44785 0.559087 0.761367
Si 0.441453 0.889817 0.762057
Si 0.910121 0.453104 0.00911829
Si 0.567771 0.452937 0.00860197
Si 0.573715 0.121749 0.00634203
Si 0.452399 0.220487 0.251884
Si 0.793595 0.220066 0.2531
Si 0.785542 0.549562 0.257147
Si 0.555934 0.774881 0.510361
Si 0.213788 0.77587 0.508932
Si 0.221249 0.445112 0.507237
Si 0.456035 0.228921 0.755872
Si 0.798588 0.227905 0.755051
Si 0.791667 0.558963 0.757941
Si 0.558304 0.781597 0.0138947
Si 0.21629 0.783377 0.0122361
Si 0.226042 0.4547 0.00960391
C 0.111787 0.225679 0.441664
C 0.780386 0.882989 0.449645
C 0.0946987 0.883591 0.448631
C 0.899738 0.776893 0.698286
C 0.229805 0.121535 0.692673
C 0.916065 0.117483 0.692932
C 0.11643 0.235138 0.945477
C 0.784047 0.890818 0.952518
C 0.101486 0.892923 0.95021
C 0.897303 0.767636 0.196423
C 0.226847 0.110694 0.190511
C 0.911922 0.108147 0.189614
C 0.104898 0.557106 0.447148
C 0.447525 0.555068 0.44642
C 0.440183 0.885955 0.449473
C 0.906514 0.446047 0.696258
C 0.563947 0.44757 0.695493
C 0.572667 0.117459 0.692882
C 0.107685 0.563585 0.948473
C 0.451624 0.563371 0.949482
C 0.442521 0.893199 0.95155
C 0.904776 0.439151 0.192875
C 0.559996 0.439918 0.193221
C 0.567925 0.110577 0.190097
C 0.453085 0.225107 0.443169
C 0.796744 0.223977 0.442331
C 0.786309 0.55181 0.447543
C 0.557038 0.778262 0.69908
C 0.214262 0.778495 0.700672
C 0.222005 0.448622 0.69593
C 0.459007 0.232334 0.943931
C 0.80054 0.231821 0.945706
C 0.791224 0.56024 0.94815
C 0.554225 0.7706 0.196803
C 0.210465 0.770286 0.197091
C 0.218241 0.441529 0.193781
