data_none

_audit_creation_method generated by ABACUS

_cell_length_a 8.53153
_cell_length_b 8.67363
_cell_length_c 8.85237
_cell_angle_alpha 91.0247
_cell_angle_beta 89.233
_cell_angle_gamma 88.9465

_symmetry_space_group_name_H-M 
_symmetry_Int_Tables_number 

loop_
_atom_site_label
_atom_site_fract_x
_atom_site_fract_y
_atom_site_fract_z
Si 0.378859 0.12534 0.367914
Si 0.375592 0.130352 0.857818
Si 0.374211 0.62735 0.373082
Si 0.369689 0.630248 0.863045
Si 0.889056 0.121017 0.364493
Si 0.885471 0.125627 0.855224
Si 0.884016 0.621991 0.368576
Si 0.880743 0.627335 0.86028
Si 0.379294 0.374915 0.123449
Si 0.374447 0.379188 0.61448
Si 0.373139 0.874175 0.129097
Si 0.369938 0.880613 0.618787
Si 0.888014 0.367491 0.119849
Si 0.884458 0.373546 0.611504
Si 0.88529 0.87072 0.124083
Si 0.878645 0.873384 0.616459
Si 0.124754 0.125168 0.121797
Si 0.122477 0.129221 0.615758
Si 0.119272 0.627142 0.127163
Si 0.118179 0.631193 0.619622
Si 0.634622 0.120762 0.120881
Si 0.631981 0.126182 0.610784
Si 0.632758 0.620077 0.124191
Si 0.626273 0.626602 0.616715
Si 0.121582 0.37829 0.371317
Si 0.117294 0.384997 0.863058
Si 0.118043 0.879937 0.375345
Si 0.112954 0.883057 0.867959
Si 0.631933 0.372358 0.367228
Si 0.627449 0.378406 0.859508
Si 0.626812 0.874566 0.370182
Si 0.622184 0.880126 0.863993
C 0.0202354 0.990449 0.995074
C 0.0162512 0.994638 0.483258
C 0.0162519 0.490379 0.997122
C 0.0119925 0.495919 0.490472
C 0.511516 0.995453 0.996074
C 0.508046 0.997703 0.488319
C 0.506308 0.495609 0.000531465
C 0.499218 0.501983 0.49144
C 0.0138516 0.245678 0.240843
C 0.0116422 0.248728 0.734208
C 0.0105153 0.744822 0.244346
C 0.00787611 0.750571 0.737363
C 0.506622 0.248734 0.245635
C 0.502822 0.252126 0.736214
C 0.502012 0.748553 0.246754
C 0.496766 0.754029 0.740107
C 0.253833 0.999595 0.243806
C 0.249421 0.00440724 0.73722
C 0.249567 0.50047 0.248791
C 0.244707 0.505555 0.739852
C 0.761946 0.996274 0.240611
C 0.761128 0.998394 0.732362
C 0.758911 0.495686 0.245547
C 0.755271 0.501156 0.736407
C 0.252996 0.247071 0.00117955
C 0.2481 0.251273 0.492137
C 0.2484 0.748975 0.00630641
C 0.24309 0.75374 0.496735
C 0.762419 0.243547 0.99728
C 0.75817 0.248323 0.487392
C 0.757664 0.744731 0.00228777
C 0.755294 0.749321 0.492355
