data_none

_audit_creation_method generated by ABACUS

_cell_length_a 9.16206
_cell_length_b 9.18604
_cell_length_c 10.0705
_cell_angle_alpha 88.3943
_cell_angle_beta 90.7759
_cell_angle_gamma 121.125

_symmetry_space_group_name_H-M 
_symmetry_Int_Tables_number 

loop_
_atom_site_label
_atom_site_fract_x
_atom_site_fract_y
_atom_site_fract_z
Si 0.11569 0.22271 0.247984
Si 0.796723 0.902838 0.244486
Si 0.12338 0.893856 0.239446
Si 0.907762 0.788804 0.494602
Si 0.22475 0.106673 0.500414
Si 0.90036 0.115011 0.503807
Si 0.114023 0.212805 0.749621
Si 0.794353 0.893224 0.743677
Si 0.122684 0.88765 0.74001
Si 0.905577 0.779259 0.996189
Si 0.226529 0.0998619 0.000303849
Si 0.899505 0.107126 0.00372895
Si 0.117166 0.556857 0.243904
Si 0.455609 0.563693 0.246221
Si 0.459709 0.898006 0.241993
Si 0.90397 0.452436 0.501134
Si 0.5653 0.447137 0.498113
Si 0.563132 0.111443 0.501398
Si 0.117285 0.549254 0.741176
Si 0.456338 0.554701 0.746008
Si 0.459451 0.889834 0.740516
Si 0.902818 0.443328 0.00037187
Si 0.56637 0.439418 0.997877
Si 0.563464 0.103395 0.000906835
Si 0.451927 0.225089 0.248863
Si 0.787179 0.228538 0.251365
Si 0.791261 0.565988 0.248344
Si 0.570503 0.783814 0.493121
Si 0.235077 0.780721 0.490501
Si 0.228874 0.443655 0.495848
Si 0.451074 0.217517 0.750481
Si 0.790364 0.22185 0.752341
Si 0.791156 0.55754 0.748955
Si 0.569422 0.775978 0.993241
Si 0.232848 0.771166 0.99302
Si 0.228855 0.43459 0.994302
C 0.113686 0.217983 0.43535
C 0.796233 0.899992 0.432844
C 0.12321 0.891898 0.428092
C 0.907036 0.782629 0.684076
C 0.224694 0.103273 0.687671
C 0.89873 0.111979 0.693417
C 0.114378 0.212079 0.93589
C 0.793477 0.889469 0.930715
C 0.121536 0.882878 0.927266
C 0.906645 0.792033 0.184803
C 0.225873 0.112366 0.186074
C 0.902563 0.121679 0.192834
C 0.116495 0.553637 0.431371
C 0.455189 0.557505 0.43352
C 0.459853 0.895321 0.429312
C 0.903471 0.447971 0.687676
C 0.566071 0.444968 0.685088
C 0.565614 0.109277 0.690429
C 0.118194 0.547011 0.932273
C 0.455112 0.550887 0.932646
C 0.458904 0.889452 0.928448
C 0.902695 0.455464 0.187982
C 0.56645 0.450982 0.186355
C 0.561384 0.114473 0.188279
C 0.45209 0.22417 0.437568
C 0.788501 0.226503 0.439513
C 0.793403 0.562565 0.435806
C 0.571489 0.779906 0.68118
C 0.231164 0.774439 0.6792
C 0.228507 0.439828 0.683503
C 0.449327 0.213731 0.938427
C 0.78772 0.219384 0.939915
C 0.79328 0.55642 0.93586
C 0.56841 0.786309 0.181882
C 0.234004 0.783887 0.18085
C 0.23134 0.447517 0.184292
