data_none

_audit_creation_method generated by ABACUS

_cell_length_a 9.03228
_cell_length_b 9.3592
_cell_length_c 10.0784
_cell_angle_alpha 90.8621
_cell_angle_beta 89.5728
_cell_angle_gamma 117.644

_symmetry_space_group_name_H-M 
_symmetry_Int_Tables_number 

loop_
_atom_site_label
_atom_site_fract_x
_atom_site_fract_y
_atom_site_fract_z
Si 0.10582 0.218261 0.253681
Si 0.764865 0.860746 0.255338
Si 0.0826565 0.869962 0.257622
Si 0.88295 0.754076 0.506524
Si 0.222695 0.109749 0.50484
Si 0.906705 0.102444 0.500697
Si 0.105165 0.220143 0.758453
Si 0.766521 0.86585 0.760726
Si 0.0832068 0.872844 0.762781
Si 0.881645 0.756599 0.0106733
Si 0.223604 0.114501 0.00925905
Si 0.905487 0.105375 0.0070587
Si 0.0938402 0.544273 0.256211
Si 0.434506 0.538773 0.254045
Si 0.424335 0.86511 0.256794
Si 0.894726 0.428318 0.504019
Si 0.551305 0.430396 0.505347
Si 0.565197 0.106411 0.50389
Si 0.0932861 0.547755 0.759817
Si 0.434678 0.543626 0.759697
Si 0.423577 0.870148 0.760924
Si 0.893936 0.43287 0.00867061
Si 0.5525 0.435292 0.00903208
Si 0.563809 0.108732 0.0079235
Si 0.446723 0.212585 0.250979
Si 0.786625 0.208739 0.250523
Si 0.775879 0.535138 0.253656
Si 0.541197 0.757456 0.507977
Si 0.200421 0.761749 0.508287
Si 0.210733 0.434914 0.507358
Si 0.446969 0.218175 0.756823
Si 0.788128 0.213658 0.754645
Si 0.777261 0.540111 0.756614
Si 0.54071 0.760968 0.0131142
Si 0.199408 0.765458 0.0129105
Si 0.212255 0.440155 0.011436
C 0.105108 0.21947 0.442727
C 0.764229 0.862936 0.445717
C 0.0808486 0.870393 0.447661
C 0.882138 0.755204 0.695838
C 0.222425 0.112106 0.693159
C 0.907456 0.103846 0.692407
C 0.105211 0.223921 0.947319
C 0.764471 0.868137 0.950382
C 0.0822255 0.874994 0.951797
C 0.884193 0.750886 0.191639
C 0.223761 0.107073 0.189889
C 0.907089 0.0990578 0.186682
C 0.0949546 0.545875 0.445731
C 0.435134 0.540736 0.444597
C 0.423499 0.867707 0.446748
C 0.893626 0.429351 0.694035
C 0.552142 0.432823 0.695076
C 0.564331 0.106198 0.693413
C 0.0933856 0.548575 0.950173
C 0.43544 0.545774 0.949366
C 0.423308 0.872161 0.950684
C 0.895679 0.425852 0.189539
C 0.551556 0.42884 0.190935
C 0.564279 0.102971 0.188995
C 0.446538 0.215734 0.442042
C 0.7889 0.211621 0.440408
C 0.775032 0.536041 0.444223
C 0.54092 0.759235 0.697289
C 0.199142 0.762759 0.699359
C 0.211175 0.436795 0.696492
C 0.448031 0.219588 0.945658
C 0.788481 0.215709 0.945228
C 0.777273 0.541679 0.94791
C 0.542198 0.755814 0.193513
C 0.199451 0.758502 0.194518
C 0.211325 0.433426 0.192
