data_none

_audit_creation_method generated by ABACUS

_cell_length_a 8.96801
_cell_length_b 8.95218
_cell_length_c 8.64615
_cell_angle_alpha 91.459
_cell_angle_beta 91.6109
_cell_angle_gamma 89.3635

_symmetry_space_group_name_H-M 
_symmetry_Int_Tables_number 

loop_
_atom_site_label
_atom_site_fract_x
_atom_site_fract_y
_atom_site_fract_z
Si 0.372047 0.124967 0.387008
Si 0.379121 0.13306 0.895805
Si 0.368995 0.615095 0.394376
Si 0.376575 0.622344 0.903216
Si 0.861724 0.122604 0.395088
Si 0.868728 0.1293 0.90314
Si 0.858984 0.614314 0.402063
Si 0.865812 0.618846 0.908153
Si 0.367719 0.36776 0.138365
Si 0.373647 0.374432 0.646
Si 0.365542 0.858449 0.143495
Si 0.372224 0.864296 0.650377
Si 0.857565 0.365267 0.142383
Si 0.864332 0.371077 0.652027
Si 0.853764 0.856909 0.151054
Si 0.861836 0.862117 0.658935
Si 0.124767 0.123838 0.129573
Si 0.131329 0.129704 0.639192
Si 0.122438 0.614666 0.136458
Si 0.127379 0.620286 0.644878
Si 0.613022 0.120707 0.137275
Si 0.620884 0.127673 0.645827
Si 0.610272 0.612395 0.143026
Si 0.61958 0.619477 0.651527
Si 0.12545 0.372141 0.387925
Si 0.13261 0.379006 0.896774
Si 0.12335 0.862467 0.393746
Si 0.130653 0.868207 0.902947
Si 0.615216 0.368863 0.394227
Si 0.622576 0.37514 0.902837
Si 0.61317 0.860552 0.400789
Si 0.620085 0.866289 0.908301
C 0.980367 0.996083 0.0140682
C 0.98627 0.00118833 0.52174
C 0.978005 0.485491 0.0216694
C 0.983461 0.491468 0.528724
C 0.490442 0.996796 0.00633191
C 0.497381 0.00395132 0.514895
C 0.488204 0.488547 0.0132505
C 0.494135 0.49315 0.522214
C 0.981856 0.242475 0.271536
C 0.988509 0.249739 0.778059
C 0.97908 0.73411 0.277809
C 0.986838 0.739681 0.785186
C 0.491907 0.245222 0.264394
C 0.499988 0.252882 0.772145
C 0.490445 0.735663 0.272302
C 0.496017 0.743128 0.779291
C 0.248171 0.00236379 0.258296
C 0.254096 0.00911755 0.766941
C 0.245311 0.491816 0.26444
C 0.253955 0.499159 0.772217
C 0.738327 0.999608 0.264294
C 0.745556 0.00535793 0.773395
C 0.734915 0.489859 0.270365
C 0.743664 0.495869 0.779551
C 0.242885 0.243592 0.00666274
C 0.251335 0.250529 0.515267
C 0.241942 0.734173 0.0137019
C 0.248191 0.740052 0.521053
C 0.734308 0.240994 0.0135299
C 0.740088 0.247393 0.522365
C 0.731719 0.731706 0.020374
C 0.737509 0.73857 0.529306
