data_none

_audit_creation_method generated by ABACUS

_cell_length_a 9.32739
_cell_length_b 9.29759
_cell_length_c 9.90836
_cell_angle_alpha 89.8019
_cell_angle_beta 90.3772
_cell_angle_gamma 118.624

_symmetry_space_group_name_H-M 
_symmetry_Int_Tables_number 

loop_
_atom_site_label
_atom_site_fract_x
_atom_site_fract_y
_atom_site_fract_z
Si 0.106671 0.216798 0.253469
Si 0.752668 0.864264 0.255744
Si 0.099678 0.873625 0.252602
Si 0.86301 0.753176 0.509054
Si 0.218072 0.106521 0.508987
Si 0.872549 0.0967309 0.510212
Si 0.10917 0.216554 0.763478
Si 0.753852 0.863439 0.763275
Si 0.100873 0.874327 0.761525
Si 0.864456 0.752776 0.0183934
Si 0.220198 0.106168 0.0171524
Si 0.873384 0.0964519 0.018768
Si 0.102341 0.544711 0.253964
Si 0.430233 0.542437 0.255226
Si 0.426909 0.868147 0.254425
Si 0.867878 0.425228 0.511363
Si 0.539697 0.429313 0.509441
Si 0.54508 0.101557 0.509296
Si 0.104093 0.544566 0.75995
Si 0.432681 0.540772 0.763007
Si 0.428284 0.868728 0.761892
Si 0.868522 0.42373 0.0180123
Si 0.541743 0.428493 0.0176136
Si 0.547532 0.101379 0.0165854
Si 0.433787 0.212284 0.254011
Si 0.760081 0.207649 0.255199
Si 0.755922 0.535425 0.255546
Si 0.537254 0.758175 0.508314
Si 0.21121 0.763654 0.506086
Si 0.213957 0.434898 0.508223
Si 0.435164 0.211845 0.763874
Si 0.763617 0.207623 0.76472
Si 0.757142 0.535132 0.763948
Si 0.537547 0.75782 0.0164159
Si 0.212095 0.762409 0.0167773
Si 0.215719 0.43359 0.0149649
C 0.107516 0.217042 0.444139
C 0.752927 0.865433 0.446483
C 0.101516 0.874546 0.444063
C 0.863814 0.751241 0.700025
C 0.218859 0.10635 0.699504
C 0.872363 0.0967725 0.702686
C 0.109818 0.218772 0.953212
C 0.753142 0.862208 0.954132
C 0.101456 0.872747 0.952198
C 0.861175 0.751968 0.193674
C 0.217119 0.106554 0.190653
C 0.872274 0.0975793 0.194177
C 0.10244 0.544456 0.444367
C 0.430419 0.538935 0.445657
C 0.426854 0.868747 0.445215
C 0.868122 0.424832 0.701178
C 0.540085 0.429034 0.699441
C 0.547526 0.101232 0.699935
C 0.105352 0.545543 0.952676
C 0.432411 0.540228 0.952735
C 0.428156 0.869316 0.952701
C 0.865447 0.423726 0.193079
C 0.539334 0.428394 0.192751
C 0.542601 0.0998426 0.191516
C 0.434714 0.211753 0.445543
C 0.760826 0.207045 0.446728
C 0.758413 0.534776 0.447108
C 0.538414 0.757827 0.699269
C 0.209177 0.760372 0.698252
C 0.213349 0.433362 0.69885
C 0.434218 0.210923 0.954663
C 0.761563 0.207111 0.954926
C 0.759012 0.535731 0.954249
C 0.535455 0.757434 0.191588
C 0.209779 0.76217 0.191914
C 0.21318 0.433502 0.192069
