data_none

_audit_creation_method generated by ABACUS

_cell_length_a 8.58966
_cell_length_b 8.75343
_cell_length_c 8.91843
_cell_angle_alpha 88.8828
_cell_angle_beta 91.6053
_cell_angle_gamma 91.4275

_symmetry_space_group_name_H-M 
_symmetry_Int_Tables_number 

loop_
_atom_site_label
_atom_site_fract_x
_atom_site_fract_y
_atom_site_fract_z
Si 0.39097 0.126325 0.373059
Si 0.397767 0.122399 0.865909
Si 0.396546 0.62824 0.369003
Si 0.403696 0.623909 0.861612
Si 0.901964 0.132715 0.380496
Si 0.908986 0.127769 0.872967
Si 0.908308 0.634964 0.375489
Si 0.91565 0.629354 0.867682
Si 0.390572 0.379474 0.125745
Si 0.396789 0.375603 0.617984
Si 0.396133 0.881115 0.119582
Si 0.404032 0.877237 0.612557
Si 0.901744 0.386465 0.130983
Si 0.908586 0.381381 0.624412
Si 0.908103 0.888223 0.127361
Si 0.914998 0.883401 0.619755
Si 0.131484 0.126468 0.12306
Si 0.138097 0.121185 0.616346
Si 0.138256 0.628094 0.118894
Si 0.144036 0.622919 0.611437
Si 0.642519 0.131621 0.130731
Si 0.649706 0.127434 0.623034
Si 0.648837 0.634032 0.125762
Si 0.656489 0.629763 0.618193
Si 0.137383 0.37429 0.367238
Si 0.144874 0.370413 0.860838
Si 0.14424 0.876336 0.362771
Si 0.15076 0.871082 0.856197
Si 0.649411 0.380492 0.37447
Si 0.656411 0.37525 0.866747
Si 0.655324 0.882396 0.369722
Si 0.661844 0.877952 0.862169
C 0.0235037 0.0126176 0.0138278
C 0.0300665 0.00795306 0.506678
C 0.0291666 0.514692 0.0100843
C 0.0357365 0.509393 0.501561
C 0.511895 0.00574933 0.00651031
C 0.519319 0.0018529 0.499362
C 0.518551 0.508555 0.00225652
C 0.524535 0.503362 0.494514
C 0.0299184 0.261296 0.258125
C 0.036463 0.256143 0.749974
C 0.0362588 0.763389 0.253669
C 0.0435514 0.757855 0.745313
C 0.517594 0.254225 0.250385
C 0.525553 0.249964 0.743896
C 0.524641 0.756283 0.246789
C 0.531316 0.751997 0.738771
C 0.259794 0.00112172 0.250147
C 0.26632 0.996035 0.742555
C 0.265412 0.502273 0.245202
C 0.272716 0.498451 0.737859
C 0.77054 0.00704456 0.256959
C 0.778106 0.00179207 0.748955
C 0.777233 0.508953 0.251837
C 0.783955 0.504063 0.74467
C 0.258226 0.254078 0.000539206
C 0.266525 0.249928 0.493877
C 0.265802 0.75557 0.99665
C 0.271861 0.751936 0.488686
C 0.77092 0.259764 0.00806425
C 0.777391 0.255556 0.500684
C 0.776552 0.761895 0.00346312
C 0.783032 0.757541 0.496352
