data_none

_audit_creation_method generated by ABACUS

_cell_length_a 8.49998
_cell_length_b 8.84963
_cell_length_c 8.65338
_cell_angle_alpha 90.3355
_cell_angle_beta 88.8183
_cell_angle_gamma 90.9957

_symmetry_space_group_name_H-M 
_symmetry_Int_Tables_number 

loop_
_atom_site_label
_atom_site_fract_x
_atom_site_fract_y
_atom_site_fract_z
Si 0.381373 0.12739 0.3734
Si 0.37615 0.129021 0.87628
Si 0.38577 0.618435 0.373984
Si 0.379782 0.619014 0.877224
Si 0.892741 0.13133 0.36865
Si 0.887091 0.13385 0.870949
Si 0.896829 0.623323 0.370084
Si 0.892526 0.624645 0.87253
Si 0.386482 0.372785 0.122371
Si 0.379804 0.37409 0.62545
Si 0.390321 0.862891 0.124788
Si 0.384914 0.865706 0.62614
Si 0.897377 0.375653 0.117321
Si 0.893113 0.377593 0.619818
Si 0.902687 0.867609 0.118502
Si 0.895672 0.868652 0.621371
Si 0.127061 0.124816 0.123869
Si 0.122803 0.125546 0.627804
Si 0.131881 0.61583 0.126388
Si 0.127056 0.617033 0.628594
Si 0.63942 0.129586 0.119643
Si 0.634201 0.130424 0.62199
Si 0.643784 0.619016 0.121374
Si 0.637929 0.621087 0.624227
Si 0.126551 0.370859 0.376811
Si 0.12122 0.37223 0.880069
Si 0.132487 0.862118 0.377559
Si 0.126035 0.862043 0.881339
Si 0.639412 0.373984 0.370997
Si 0.634161 0.377023 0.874017
Si 0.643698 0.866178 0.371345
Si 0.637515 0.867877 0.876196
C 0.0236401 0.0086679 0.990697
C 0.0179317 0.0101187 0.491526
C 0.0287005 0.498625 0.99063
C 0.0227068 0.501969 0.493898
C 0.512726 0.00417519 0.994668
C 0.507498 0.00494368 0.497712
C 0.51597 0.495204 0.995851
C 0.510273 0.496616 0.498369
C 0.021298 0.2563 0.241388
C 0.0178696 0.255983 0.744696
C 0.0272159 0.746968 0.242503
C 0.0223302 0.74791 0.745089
C 0.512293 0.250877 0.248127
C 0.506513 0.251889 0.748998
C 0.516644 0.741427 0.247759
C 0.510059 0.743275 0.7505
C 0.253187 0.00304818 0.248585
C 0.246865 0.0039756 0.751682
C 0.258178 0.493119 0.249922
C 0.252009 0.495055 0.751915
C 0.764196 0.00715632 0.243404
C 0.760341 0.00701962 0.746092
C 0.768919 0.499028 0.245808
C 0.763606 0.499129 0.747807
C 0.25797 0.247862 0.998115
C 0.25263 0.248831 0.500897
C 0.262588 0.738778 0.000102322
C 0.256389 0.740859 0.501427
C 0.770122 0.251947 0.991821
C 0.764882 0.253527 0.495442
C 0.774237 0.742919 0.995268
C 0.769474 0.744312 0.497401
