data_none

_audit_creation_method generated by ABACUS

_cell_length_a 9.24242
_cell_length_b 9.35592
_cell_length_c 9.98931
_cell_angle_alpha 90.0486
_cell_angle_beta 91.1119
_cell_angle_gamma 119.037

_symmetry_space_group_name_H-M 
_symmetry_Int_Tables_number 

loop_
_atom_site_label
_atom_site_fract_x
_atom_site_fract_y
_atom_site_fract_z
Si 0.112527 0.221227 0.254896
Si 0.772751 0.87457 0.26029
Si 0.103832 0.879218 0.254886
Si 0.889576 0.767108 0.517587
Si 0.227887 0.111898 0.510971
Si 0.899624 0.109905 0.515571
Si 0.118708 0.224082 0.764301
Si 0.781081 0.880012 0.771483
Si 0.110711 0.880572 0.764561
Si 0.895336 0.767728 0.025724
Si 0.236858 0.115238 0.0198141
Si 0.904744 0.112017 0.0268877
Si 0.105592 0.549637 0.255678
Si 0.441164 0.547671 0.258335
Si 0.438327 0.876964 0.259464
Si 0.892614 0.437061 0.517848
Si 0.557352 0.439136 0.513698
Si 0.563693 0.109347 0.516082
Si 0.115096 0.553237 0.763509
Si 0.447061 0.549801 0.770163
Si 0.445424 0.881471 0.767786
Si 0.901761 0.443326 0.0250802
Si 0.566472 0.443024 0.0223569
Si 0.568656 0.11245 0.0234066
Si 0.44566 0.217469 0.256759
Si 0.780837 0.217011 0.261237
Si 0.774863 0.545577 0.262381
Si 0.553277 0.767704 0.514427
Si 0.218177 0.770458 0.510024
Si 0.225075 0.439909 0.51212
Si 0.453939 0.222181 0.768284
Si 0.788707 0.221362 0.768956
Si 0.78473 0.550591 0.769749
Si 0.559976 0.770674 0.0241059
Si 0.225772 0.772977 0.0183803
Si 0.231701 0.444562 0.0197236
C 0.113245 0.220782 0.446
C 0.774745 0.876191 0.453893
C 0.104147 0.879377 0.446542
C 0.891762 0.769076 0.707171
C 0.231028 0.115297 0.70194
C 0.901653 0.110676 0.708063
C 0.122719 0.226932 0.957738
C 0.780834 0.879813 0.962456
C 0.113404 0.882923 0.954708
C 0.885346 0.763634 0.19964
C 0.223213 0.108375 0.19372
C 0.892618 0.104791 0.199333
C 0.110051 0.552878 0.447564
C 0.446481 0.551285 0.45114
C 0.441503 0.879759 0.450221
C 0.895307 0.438663 0.708103
C 0.561568 0.441615 0.70475
C 0.567126 0.111721 0.705736
C 0.116261 0.554451 0.956218
C 0.454132 0.553798 0.960255
C 0.447322 0.883367 0.959102
C 0.888576 0.43469 0.200174
C 0.553205 0.435835 0.196691
C 0.558509 0.108289 0.195994
C 0.447802 0.220743 0.449851
C 0.785891 0.219622 0.453517
C 0.778694 0.546913 0.454139
C 0.555955 0.770352 0.704704
C 0.221105 0.770694 0.703882
C 0.225754 0.442398 0.702644
C 0.45857 0.224948 0.958027
C 0.791905 0.2232 0.962904
C 0.785179 0.550411 0.962043
C 0.550397 0.766893 0.196538
C 0.213691 0.767582 0.193954
C 0.218573 0.438323 0.193977
