data_none

_audit_creation_method generated by ABACUS

_cell_length_a 8.84153
_cell_length_b 8.62495
_cell_length_c 9.05712
_cell_angle_alpha 91.0413
_cell_angle_beta 90.5598
_cell_angle_gamma 90.9957

_symmetry_space_group_name_H-M 
_symmetry_Int_Tables_number 

loop_
_atom_site_label
_atom_site_fract_x
_atom_site_fract_y
_atom_site_fract_z
Si 0.37959 0.136719 0.371566
Si 0.380144 0.140005 0.860983
Si 0.382978 0.650035 0.375102
Si 0.384343 0.654059 0.863574
Si 0.881889 0.140758 0.372586
Si 0.883849 0.144014 0.86178
Si 0.885732 0.653805 0.377119
Si 0.887692 0.659353 0.867461
Si 0.381896 0.390098 0.12726
Si 0.381374 0.397711 0.61761
Si 0.384862 0.90484 0.131998
Si 0.387482 0.908752 0.623637
Si 0.881715 0.395451 0.128972
Si 0.885222 0.398416 0.620406
Si 0.887774 0.908837 0.134898
Si 0.889208 0.912892 0.625183
Si 0.126849 0.130988 0.124008
Si 0.12887 0.136679 0.61362
Si 0.132947 0.643908 0.129071
Si 0.134439 0.648684 0.617321
Si 0.630426 0.135992 0.127397
Si 0.630914 0.139904 0.616006
Si 0.633159 0.648194 0.13168
Si 0.636618 0.654279 0.621663
Si 0.131509 0.3904 0.371406
Si 0.133326 0.394027 0.861727
Si 0.135308 0.90526 0.374864
Si 0.137222 0.909757 0.866226
Si 0.631642 0.394263 0.373246
Si 0.635382 0.39904 0.862686
Si 0.635688 0.908279 0.377457
Si 0.639357 0.913874 0.868974
C 0.00372799 0.00821607 0.00451467
C 0.00653741 0.015011 0.494448
C 0.00741174 0.524198 0.0102627
C 0.011455 0.528704 0.499477
C 0.502369 0.00426745 0.00352269
C 0.503972 0.00905387 0.492119
C 0.506007 0.519637 0.00740184
C 0.508378 0.523434 0.496596
C 0.0072009 0.269908 0.251875
C 0.00831319 0.272963 0.742846
C 0.0125523 0.782175 0.257547
C 0.013926 0.78898 0.746335
C 0.50535 0.264177 0.248321
C 0.507376 0.268919 0.740285
C 0.509876 0.778822 0.253796
C 0.511161 0.783029 0.743388
C 0.251424 0.00423679 0.24701
C 0.254356 0.010869 0.7364
C 0.257131 0.518492 0.251742
C 0.259178 0.524125 0.73988
C 0.753081 0.00914047 0.25018
C 0.756265 0.015195 0.737122
C 0.760436 0.523077 0.253401
C 0.760045 0.528155 0.743478
C 0.252324 0.258823 0.00390624
C 0.25643 0.264074 0.492415
C 0.257819 0.773507 0.0072655
C 0.26034 0.777899 0.498752
C 0.754441 0.264537 0.00614306
C 0.757643 0.268165 0.496248
C 0.759112 0.778829 0.0114591
C 0.761657 0.782882 0.499875
