data_none

_audit_creation_method generated by ABACUS

_cell_length_a 9.11756
_cell_length_b 9.36323
_cell_length_c 10.2141
_cell_angle_alpha 89.7471
_cell_angle_beta 91.4291
_cell_angle_gamma 119.606

_symmetry_space_group_name_H-M 
_symmetry_Int_Tables_number 

loop_
_atom_site_label
_atom_site_fract_x
_atom_site_fract_y
_atom_site_fract_z
Si 0.11274 0.218715 0.246709
Si 0.781068 0.874245 0.253638
Si 0.105091 0.870166 0.245005
Si 0.897949 0.767357 0.501698
Si 0.231737 0.112325 0.494964
Si 0.906862 0.115816 0.503175
Si 0.122864 0.222162 0.740714
Si 0.788481 0.877336 0.747298
Si 0.113011 0.873372 0.739044
Si 0.906029 0.770365 0.99512
Si 0.240145 0.115263 0.98845
Si 0.914964 0.118625 0.995834
Si 0.109182 0.544227 0.246709
Si 0.44703 0.547379 0.250427
Si 0.444104 0.872487 0.249954
Si 0.902805 0.441712 0.50282
Si 0.564247 0.440444 0.498751
Si 0.568855 0.113907 0.498373
Si 0.117014 0.547174 0.738933
Si 0.455375 0.549163 0.743215
Si 0.451172 0.874428 0.742929
Si 0.910698 0.444101 0.995379
Si 0.573311 0.442654 0.991413
Si 0.577392 0.116932 0.992293
Si 0.450679 0.220638 0.250626
Si 0.787868 0.222595 0.253961
Si 0.784069 0.547752 0.254093
Si 0.561257 0.765725 0.497459
Si 0.223617 0.763692 0.492863
Si 0.22751 0.438902 0.494669
Si 0.459129 0.2231 0.743665
Si 0.797996 0.22522 0.748354
Si 0.792538 0.550703 0.747703
Si 0.56894 0.768354 0.990615
Si 0.232135 0.767021 0.987112
Si 0.235321 0.441234 0.987067
C 0.117338 0.220388 0.432264
C 0.78398 0.8758 0.439063
C 0.109834 0.872765 0.43059
C 0.901641 0.767887 0.686322
C 0.234624 0.1134 0.680533
C 0.910021 0.117509 0.689066
C 0.125564 0.224434 0.926071
C 0.790228 0.87655 0.931658
C 0.116957 0.874077 0.924341
C 0.892193 0.765035 0.194456
C 0.226262 0.111044 0.187082
C 0.902695 0.114394 0.195794
C 0.112273 0.545093 0.431661
C 0.450394 0.546731 0.435335
C 0.446074 0.872917 0.434578
C 0.905762 0.442486 0.687581
C 0.567521 0.441164 0.683635
C 0.572859 0.114528 0.684443
C 0.12066 0.548739 0.924915
C 0.458081 0.548909 0.928226
C 0.453905 0.876906 0.928146
C 0.89667 0.438924 0.194652
C 0.560472 0.437866 0.191629
C 0.562988 0.111856 0.190981
C 0.454624 0.221641 0.435958
C 0.791308 0.222988 0.44013
C 0.788868 0.549087 0.44022
C 0.564489 0.766548 0.683097
C 0.224979 0.763607 0.678913
C 0.230483 0.438663 0.679429
C 0.461472 0.224029 0.929444
C 0.799195 0.226473 0.932916
C 0.796145 0.552105 0.932531
C 0.554849 0.763025 0.191125
C 0.218828 0.762456 0.186575
C 0.222541 0.436172 0.187653
