data_none

_audit_creation_method generated by ABACUS

_cell_length_a 8.66882
_cell_length_b 8.69021
_cell_length_c 8.59766
_cell_angle_alpha 91.5405
_cell_angle_beta 91.2489
_cell_angle_gamma 90.8471

_symmetry_space_group_name_H-M 
_symmetry_Int_Tables_number 

loop_
_atom_site_label
_atom_site_fract_x
_atom_site_fract_y
_atom_site_fract_z
Si 0.381765 0.133294 0.385413
Si 0.387379 0.140481 0.891815
Si 0.38587 0.634017 0.392458
Si 0.390063 0.639392 0.898658
Si 0.88387 0.137485 0.391941
Si 0.888694 0.144445 0.897581
Si 0.886533 0.636834 0.398454
Si 0.893715 0.644168 0.903697
Si 0.381206 0.380914 0.135611
Si 0.385994 0.387046 0.642356
Si 0.384349 0.880118 0.143351
Si 0.38964 0.887751 0.647681
Si 0.882557 0.382574 0.140575
Si 0.888612 0.390484 0.647271
Si 0.887701 0.884615 0.14819
Si 0.891305 0.889735 0.654522
Si 0.126877 0.128277 0.128834
Si 0.133214 0.134298 0.636549
Si 0.131018 0.62905 0.136652
Si 0.137664 0.635567 0.642822
Si 0.628839 0.133176 0.135811
Si 0.635576 0.138375 0.640936
Si 0.634177 0.630855 0.141742
Si 0.637916 0.638944 0.649109
Si 0.132359 0.381946 0.385662
Si 0.13758 0.38866 0.893362
Si 0.136916 0.88233 0.392069
Si 0.140944 0.88775 0.899442
Si 0.634682 0.384338 0.390959
Si 0.640168 0.392778 0.897532
Si 0.638256 0.885467 0.396726
Si 0.642915 0.893152 0.905373
C 0.00408464 0.00707781 0.0122888
C 0.00926003 0.0141263 0.516533
C 0.00841561 0.506242 0.0172576
C 0.013409 0.514776 0.524944
C 0.503188 0.0036077 0.00505967
C 0.508649 0.00900803 0.512369
C 0.505716 0.503981 0.0123029
C 0.510517 0.510821 0.517924
C 0.00582862 0.262899 0.267061
C 0.0135751 0.267819 0.775044
C 0.0115283 0.762253 0.273877
C 0.0177467 0.76867 0.77994
C 0.50753 0.257779 0.262983
C 0.51243 0.26401 0.767629
C 0.512081 0.757657 0.267819
C 0.515073 0.764731 0.773919
C 0.25341 0.00502659 0.256523
C 0.258426 0.0116106 0.763137
C 0.258295 0.504555 0.262567
C 0.262471 0.512481 0.768017
C 0.754781 0.00908996 0.261313
C 0.761849 0.0146275 0.767396
C 0.75981 0.50985 0.268563
C 0.764784 0.515835 0.774009
C 0.252919 0.252013 0.00606176
C 0.257276 0.257944 0.512281
C 0.256892 0.752275 0.013631
C 0.260949 0.75958 0.51816
C 0.754255 0.255884 0.0114459
C 0.760547 0.262716 0.516588
C 0.75855 0.755872 0.0195463
C 0.764292 0.762537 0.524918
