data_none

_audit_creation_method generated by ABACUS

_cell_length_a 8.61061
_cell_length_b 8.50302
_cell_length_c 8.51288
_cell_angle_alpha 88.6108
_cell_angle_beta 89.2572
_cell_angle_gamma 88.949

_symmetry_space_group_name_H-M 
_symmetry_Int_Tables_number 

loop_
_atom_site_label
_atom_site_fract_x
_atom_site_fract_y
_atom_site_fract_z
Si 0.375306 0.120017 0.378991
Si 0.37244 0.114123 0.890508
Si 0.370807 0.630918 0.37249
Si 0.367214 0.624275 0.883934
Si 0.880063 0.115401 0.375721
Si 0.876934 0.10931 0.887814
Si 0.875492 0.627131 0.37051
Si 0.873338 0.621 0.881271
Si 0.37521 0.378449 0.120883
Si 0.3707 0.373131 0.631645
Si 0.370517 0.890233 0.114986
Si 0.366686 0.884927 0.625191
Si 0.879511 0.373714 0.117813
Si 0.876611 0.367922 0.628396
Si 0.875988 0.885269 0.110934
Si 0.870976 0.878837 0.622068
Si 0.12391 0.125988 0.1248
Si 0.121467 0.118383 0.63703
Si 0.119292 0.636701 0.120033
Si 0.116861 0.630622 0.629941
Si 0.629657 0.12066 0.122094
Si 0.625972 0.115019 0.633284
Si 0.624744 0.631251 0.116667
Si 0.621292 0.625815 0.627236
Si 0.120505 0.378091 0.377087
Si 0.116792 0.371827 0.88893
Si 0.116749 0.889535 0.371213
Si 0.112465 0.882521 0.883429
Si 0.626082 0.371838 0.374365
Si 0.622632 0.367339 0.884901
Si 0.62192 0.884721 0.36774
Si 0.617919 0.878685 0.880437
C 0.0101596 0.990824 0.99452
C 0.0071744 0.984379 0.504241
C 0.00619368 0.500978 0.987485
C 0.00249294 0.496238 0.498209
C 0.505997 0.99521 0.996882
C 0.502733 0.988431 0.507699
C 0.500171 0.507124 0.990343
C 0.496747 0.500337 0.501202
C 0.0053488 0.244508 0.246407
C 0.00312127 0.236661 0.757566
C 0.00150105 0.755381 0.239162
C 0.998804 0.748492 0.750778
C 0.50133 0.247821 0.249943
C 0.49869 0.241961 0.759476
C 0.497388 0.759127 0.242529
C 0.493049 0.753247 0.753723
C 0.250878 0.994816 0.253756
C 0.247402 0.988925 0.764879
C 0.246424 0.505857 0.247154
C 0.242776 0.499415 0.75789
C 0.75601 0.990073 0.250616
C 0.753191 0.982322 0.761567
C 0.75085 0.502144 0.244584
C 0.747772 0.494969 0.755407
C 0.250017 0.253508 0.995666
C 0.247298 0.247133 0.506211
C 0.24568 0.76492 0.989088
C 0.242241 0.75853 0.500267
C 0.755967 0.248639 0.991492
C 0.752342 0.242677 0.502969
C 0.750942 0.759643 0.987002
C 0.747242 0.75336 0.496813
