data_none

_audit_creation_method generated by ABACUS

_cell_length_a 9.39354
_cell_length_b 9.14812
_cell_length_c 10.3723
_cell_angle_alpha 90.9582
_cell_angle_beta 88.6909
_cell_angle_gamma 119.695

_symmetry_space_group_name_H-M 
_symmetry_Int_Tables_number 

loop_
_atom_site_label
_atom_site_fract_x
_atom_site_fract_y
_atom_site_fract_z
Si 0.109206 0.229172 0.247691
Si 0.775593 0.905778 0.245707
Si 0.113009 0.914518 0.25229
Si 0.882391 0.792001 0.492035
Si 0.216622 0.113622 0.493775
Si 0.880442 0.105982 0.488278
Si 0.10441 0.232153 0.743577
Si 0.77023 0.908066 0.742607
Si 0.108938 0.917404 0.748765
Si 0.877132 0.793794 0.98861
Si 0.210377 0.115248 0.989668
Si 0.873548 0.106773 0.982158
Si 0.112209 0.572283 0.251101
Si 0.444196 0.568727 0.246822
Si 0.443956 0.910596 0.249422
Si 0.880744 0.448736 0.489136
Si 0.547531 0.452363 0.494012
Si 0.546227 0.109013 0.490204
Si 0.104554 0.572488 0.744765
Si 0.436082 0.570232 0.742862
Si 0.439321 0.912713 0.744902
Si 0.876176 0.451475 0.984502
Si 0.54386 0.454136 0.989047
Si 0.542221 0.11183 0.986132
Si 0.438824 0.224301 0.244332
Si 0.771774 0.219945 0.241705
Si 0.774716 0.564155 0.242919
Si 0.550758 0.79489 0.494756
Si 0.221172 0.799803 0.499641
Si 0.218463 0.457539 0.495311
Si 0.435953 0.226686 0.740444
Si 0.768509 0.224028 0.737986
Si 0.769179 0.56569 0.740501
Si 0.544447 0.795144 0.992458
Si 0.213795 0.801121 0.993815
Si 0.209999 0.456649 0.99174
C 0.107243 0.229706 0.433854
C 0.773665 0.906996 0.432555
C 0.110289 0.91471 0.439726
C 0.880796 0.791982 0.678496
C 0.21359 0.113917 0.68037
C 0.876838 0.10617 0.672899
C 0.10117 0.232361 0.928527
C 0.769899 0.910339 0.927059
C 0.104916 0.917478 0.935741
C 0.886798 0.79148 0.182717
C 0.219795 0.112508 0.185426
C 0.883256 0.105006 0.177468
C 0.109008 0.572774 0.437027
C 0.439795 0.566531 0.432999
C 0.442974 0.91086 0.435865
C 0.878919 0.449573 0.675923
C 0.546937 0.452771 0.678663
C 0.545254 0.111713 0.677435
C 0.103405 0.574152 0.931046
C 0.435138 0.571208 0.928695
C 0.436037 0.91227 0.931887
C 0.884579 0.447553 0.180015
C 0.553153 0.452448 0.183578
C 0.550995 0.108264 0.182629
C 0.438597 0.224449 0.431829
C 0.768731 0.220065 0.427478
C 0.771648 0.564145 0.430161
C 0.548116 0.796266 0.679653
C 0.21743 0.801446 0.685347
C 0.215525 0.456681 0.682947
C 0.4321 0.226681 0.926639
C 0.764737 0.222144 0.92274
C 0.765858 0.566114 0.925734
C 0.556891 0.796289 0.187546
C 0.224555 0.799163 0.188958
C 0.222892 0.456698 0.186665
