data_none

_audit_creation_method generated by ABACUS

_cell_length_a 8.46422
_cell_length_b 8.54114
_cell_length_c 8.92326
_cell_angle_alpha 90.1653
_cell_angle_beta 89.8232
_cell_angle_gamma 88.729

_symmetry_space_group_name_H-M 
_symmetry_Int_Tables_number 

loop_
_atom_site_label
_atom_site_fract_x
_atom_site_fract_y
_atom_site_fract_z
Si 0.383157 0.124148 0.365949
Si 0.383409 0.125157 0.852017
Si 0.378021 0.633258 0.367117
Si 0.375945 0.632252 0.853737
Si 0.898546 0.11866 0.365116
Si 0.896706 0.119444 0.852157
Si 0.891512 0.62807 0.36502
Si 0.890583 0.62814 0.853749
Si 0.382237 0.379101 0.12163
Si 0.379701 0.380042 0.607924
Si 0.374678 0.885674 0.123077
Si 0.374661 0.888967 0.60924
Si 0.894981 0.370605 0.120662
Si 0.894792 0.372196 0.608222
Si 0.891855 0.88104 0.120376
Si 0.886779 0.880229 0.610189
Si 0.126354 0.125986 0.120387
Si 0.127326 0.12647 0.61017
Si 0.119865 0.635862 0.122313
Si 0.121169 0.636139 0.610682
Si 0.640293 0.120102 0.122157
Si 0.64001 0.122388 0.607948
Si 0.637015 0.627606 0.122358
Si 0.63353 0.631103 0.610092
Si 0.124234 0.380578 0.366406
Si 0.121997 0.384276 0.853632
Si 0.119143 0.890778 0.365598
Si 0.116738 0.889676 0.855573
Si 0.638966 0.374467 0.363922
Si 0.636687 0.376923 0.852814
Si 0.631826 0.884648 0.363897
Si 0.630453 0.885788 0.853434
C 0.028071 0.988639 0.000290433
C 0.0271552 0.988718 0.484623
C 0.0224749 0.496883 0.998678
C 0.0215193 0.497483 0.487664
C 0.51538 0.994954 0.999085
C 0.51436 0.992988 0.486735
C 0.508741 0.503012 5.74623e-05
C 0.505141 0.504768 0.486288
C 0.0225729 0.245665 0.242273
C 0.0228376 0.244262 0.731625
C 0.0188594 0.752488 0.242721
C 0.0185208 0.754627 0.731015
C 0.511471 0.249824 0.244411
C 0.510518 0.249372 0.730966
C 0.505608 0.757378 0.241545
C 0.50344 0.759492 0.730657
C 0.258236 0.997218 0.243587
C 0.254628 0.998715 0.732256
C 0.251735 0.505675 0.244565
C 0.249907 0.507592 0.731687
C 0.769479 0.993063 0.242703
C 0.770706 0.990763 0.730298
C 0.765384 0.500352 0.244249
C 0.764188 0.501801 0.73049
C 0.255143 0.250301 0.000895706
C 0.251563 0.250295 0.487345
C 0.249066 0.760171 0.00201227
C 0.246651 0.760879 0.488747
C 0.767835 0.246344 0.999687
C 0.766028 0.246689 0.48516
C 0.762484 0.754675 0.000381704
C 0.76205 0.755238 0.486901
