data_none

_audit_creation_method generated by ABACUS

_cell_length_a 8.62258
_cell_length_b 8.62232
_cell_length_c 8.93208
_cell_angle_alpha 90.172
_cell_angle_beta 88.7218
_cell_angle_gamma 91.5376

_symmetry_space_group_name_H-M 
_symmetry_Int_Tables_number 

loop_
_atom_site_label
_atom_site_fract_x
_atom_site_fract_y
_atom_site_fract_z
Si 0.375881 0.131467 0.361792
Si 0.369931 0.132855 0.847841
Si 0.383156 0.63645 0.362862
Si 0.376492 0.635667 0.84915
Si 0.881153 0.13892 0.356571
Si 0.87516 0.140112 0.843236
Si 0.887074 0.642511 0.357431
Si 0.882423 0.643808 0.843688
Si 0.382932 0.385146 0.117193
Si 0.376934 0.384902 0.604991
Si 0.38879 0.88709 0.119579
Si 0.382918 0.889094 0.604664
Si 0.886861 0.388883 0.112157
Si 0.881489 0.390851 0.599303
Si 0.895558 0.895079 0.11254
Si 0.887247 0.893267 0.600001
Si 0.125609 0.128488 0.119849
Si 0.120828 0.128149 0.609196
Si 0.132539 0.633448 0.12088
Si 0.12818 0.633401 0.608476
Si 0.630183 0.135866 0.115994
Si 0.625818 0.136357 0.601554
Si 0.639449 0.637495 0.115684
Si 0.631211 0.639863 0.603824
Si 0.127132 0.380187 0.364118
Si 0.121045 0.382426 0.852426
Si 0.134457 0.885669 0.364092
Si 0.127709 0.884026 0.852657
Si 0.632094 0.386281 0.358185
Si 0.626654 0.388113 0.845564
Si 0.638461 0.891291 0.358131
Si 0.632022 0.892961 0.846983
C 0.00964724 0.0129041 0.990225
C 0.00309777 0.0136822 0.475353
C 0.0169993 0.516186 0.989223
C 0.0108596 0.517982 0.478049
C 0.506194 0.00705988 0.993827
C 0.500637 0.00527918 0.481952
C 0.511584 0.50995 0.995311
C 0.504115 0.511831 0.481489
C 0.00817771 0.26762 0.233029
C 0.00349438 0.267027 0.721158
C 0.0160656 0.770218 0.232281
C 0.0108922 0.771756 0.720319
C 0.506901 0.2602 0.239834
C 0.500335 0.259148 0.725383
C 0.51303 0.763112 0.237187
C 0.505372 0.764369 0.725618
C 0.249407 0.00351408 0.241286
C 0.243216 0.0038223 0.729067
C 0.256643 0.507038 0.241615
C 0.249891 0.508226 0.72809
C 0.753008 0.0110427 0.235127
C 0.750073 0.00984121 0.722602
C 0.761305 0.515026 0.236359
C 0.755672 0.515573 0.722804
C 0.255728 0.254722 0.998064
C 0.24918 0.255252 0.484707
C 0.262504 0.759766 0.998936
C 0.25545 0.760504 0.485166
C 0.760443 0.26224 0.992261
C 0.754714 0.262797 0.477942
C 0.766913 0.76633 0.993416
C 0.76284 0.766529 0.479698
