data_none

_audit_creation_method generated by ABACUS

_cell_length_a 8.80589
_cell_length_b 8.91029
_cell_length_c 8.90464
_cell_angle_alpha 90.0599
_cell_angle_beta 90.3856
_cell_angle_gamma 91.6954

_symmetry_space_group_name_H-M 
_symmetry_Int_Tables_number 

loop_
_atom_site_label
_atom_site_fract_x
_atom_site_fract_y
_atom_site_fract_z
Si 0.377473 0.12887 0.371337
Si 0.378243 0.130703 0.862787
Si 0.384291 0.622141 0.371829
Si 0.387107 0.622548 0.865631
Si 0.875767 0.135852 0.373083
Si 0.878612 0.136787 0.867249
Si 0.882298 0.629864 0.375198
Si 0.886007 0.628886 0.863831
Si 0.380377 0.375516 0.126489
Si 0.38135 0.37698 0.619028
Si 0.388257 0.869252 0.12476
Si 0.390307 0.869733 0.616381
Si 0.87826 0.383239 0.124696
Si 0.880206 0.381693 0.619922
Si 0.885347 0.87632 0.127953
Si 0.888864 0.876124 0.622489
Si 0.127249 0.124549 0.123231
Si 0.129797 0.12628 0.617563
Si 0.135406 0.6191 0.124402
Si 0.137545 0.617296 0.617499
Si 0.62436 0.132139 0.125689
Si 0.628068 0.132879 0.618541
Si 0.6324 0.625328 0.124507
Si 0.63759 0.628484 0.619122
Si 0.131423 0.372024 0.369178
Si 0.134197 0.374443 0.863746
Si 0.138941 0.865683 0.36922
Si 0.142861 0.865021 0.864587
Si 0.630564 0.378177 0.371986
Si 0.631829 0.378802 0.864038
Si 0.637634 0.872246 0.371047
Si 0.638976 0.872299 0.865269
C 0.999473 0.0163807 0.00306881
C 0.999013 0.0154558 0.496492
C 0.00659972 0.507033 0.00467927
C 0.00623761 0.509153 0.496821
C 0.500158 0.00694629 0.000685082
C 0.502585 0.00857762 0.495658
C 0.507705 0.500624 0.00169609
C 0.507777 0.498941 0.496895
C 0.00260247 0.261662 0.250971
C 0.00387595 0.261869 0.743539
C 0.00815981 0.752812 0.25059
C 0.0122966 0.754803 0.742492
C 0.501875 0.251924 0.247494
C 0.506296 0.254422 0.740397
C 0.512201 0.746962 0.249365
C 0.511096 0.747725 0.742328
C 0.251224 0.00360871 0.248917
C 0.250079 0.00505272 0.740567
C 0.256976 0.496926 0.247671
C 0.260317 0.49762 0.740235
C 0.749614 0.0125616 0.247593
C 0.750915 0.0115862 0.742463
C 0.756022 0.502438 0.24815
C 0.75832 0.502263 0.743397
C 0.251612 0.250076 0.000298332
C 0.255334 0.250423 0.49448
C 0.261996 0.741978 0.00130501
C 0.262081 0.742134 0.493841
C 0.751841 0.256738 0.00220036
C 0.75335 0.256837 0.495977
C 0.760902 0.750311 0.00424229
C 0.760416 0.751761 0.49626
