data_none

_audit_creation_method generated by ABACUS

_cell_length_a 9.27633
_cell_length_b 9.31058
_cell_length_c 9.84706
_cell_angle_alpha 90.9798
_cell_angle_beta 89.9724
_cell_angle_gamma 118.765

_symmetry_space_group_name_H-M 
_symmetry_Int_Tables_number 

loop_
_atom_site_label
_atom_site_fract_x
_atom_site_fract_y
_atom_site_fract_z
Si 0.110158 0.221621 0.25782
Si 0.758893 0.869537 0.263415
Si 0.100445 0.876122 0.262402
Si 0.869516 0.761209 0.515965
Si 0.220063 0.111838 0.513116
Si 0.879524 0.105668 0.512422
Si 0.110907 0.226351 0.770962
Si 0.759626 0.874148 0.773839
Si 0.103839 0.883927 0.775492
Si 0.872692 0.766719 0.0293413
Si 0.22547 0.119814 0.0240521
Si 0.881925 0.11119 0.0228716
Si 0.10167 0.545722 0.260701
Si 0.433071 0.546071 0.260484
Si 0.428695 0.872437 0.262758
Si 0.875279 0.433761 0.516138
Si 0.543922 0.436862 0.515446
Si 0.548824 0.109092 0.511207
Si 0.105253 0.553257 0.768163
Si 0.436486 0.550515 0.771443
Si 0.431953 0.877487 0.773089
Si 0.87722 0.440071 0.0273545
Si 0.54884 0.443823 0.026709
Si 0.552134 0.113951 0.0231598
Si 0.437722 0.215665 0.256139
Si 0.764853 0.211514 0.256605
Si 0.761281 0.540076 0.260946
Si 0.541455 0.765331 0.517213
Si 0.214313 0.770175 0.515395
Si 0.216647 0.441154 0.51417
Si 0.439352 0.22197 0.769133
Si 0.771168 0.219495 0.769014
Si 0.763927 0.546346 0.771828
Si 0.543599 0.770455 0.0290762
Si 0.214316 0.774103 0.030213
Si 0.218748 0.445694 0.0241584
C 0.108035 0.22186 0.448776
C 0.75844 0.870906 0.455588
C 0.102069 0.878847 0.455255
C 0.870892 0.761073 0.709452
C 0.22062 0.114103 0.704829
C 0.879712 0.10756 0.704498
C 0.112236 0.230245 0.961093
C 0.759178 0.87466 0.965263
C 0.103827 0.883682 0.966261
C 0.867093 0.756095 0.200155
C 0.219374 0.11014 0.192101
C 0.878634 0.103023 0.19476
C 0.104112 0.548853 0.451716
C 0.43375 0.544851 0.453181
C 0.430038 0.873791 0.455411
C 0.875776 0.435542 0.707446
C 0.54578 0.439406 0.705935
C 0.554031 0.112866 0.703776
C 0.107697 0.556192 0.963847
C 0.437011 0.551524 0.96188
C 0.433445 0.882553 0.964786
C 0.871893 0.429031 0.195587
C 0.544145 0.432738 0.196791
C 0.546921 0.10307 0.191037
C 0.437853 0.22065 0.448969
C 0.767789 0.215842 0.448816
C 0.763048 0.54206 0.452321
C 0.543862 0.765943 0.709361
C 0.212188 0.768736 0.708739
C 0.217294 0.441359 0.706898
C 0.439202 0.223214 0.96049
C 0.77064 0.222146 0.960221
C 0.767473 0.550362 0.964262
C 0.538426 0.759468 0.198146
C 0.210866 0.763853 0.200609
C 0.217232 0.436879 0.19624
