data_none

_audit_creation_method generated by ABACUS

_cell_length_a 9.48223
_cell_length_b 9.30928
_cell_length_c 10.3663
_cell_angle_alpha 89.5739
_cell_angle_beta 88.3468
_cell_angle_gamma 120.064

_symmetry_space_group_name_H-M 
_symmetry_Int_Tables_number 

loop_
_atom_site_label
_atom_site_fract_x
_atom_site_fract_y
_atom_site_fract_z
Si 0.106959 0.220576 0.245406
Si 0.768118 0.890411 0.233057
Si 0.110927 0.896676 0.242533
Si 0.872172 0.774796 0.481344
Si 0.210085 0.103225 0.492085
Si 0.868461 0.10047 0.485608
Si 0.0942645 0.214614 0.741812
Si 0.755349 0.882455 0.731516
Si 0.10008 0.888013 0.738682
Si 0.859541 0.766903 0.978112
Si 0.195788 0.0941013 0.988255
Si 0.855388 0.0906167 0.980144
Si 0.108278 0.558331 0.24506
Si 0.43899 0.556516 0.239855
Si 0.439055 0.892871 0.238575
Si 0.869393 0.437775 0.482595
Si 0.538073 0.43872 0.487606
Si 0.537012 0.101496 0.487374
Si 0.0957995 0.548565 0.738595
Si 0.423823 0.549179 0.734948
Si 0.429179 0.886457 0.734797
Si 0.859654 0.431484 0.977578
Si 0.527334 0.430045 0.982859
Si 0.527056 0.0950781 0.984264
Si 0.434141 0.218429 0.242125
Si 0.764562 0.217415 0.236979
Si 0.768512 0.556 0.235435
Si 0.540829 0.775169 0.48561
Si 0.213356 0.777401 0.491192
Si 0.211397 0.440618 0.490101
Si 0.423439 0.211739 0.737124
Si 0.754756 0.210035 0.733331
Si 0.755781 0.547992 0.732203
Si 0.528499 0.765272 0.983716
Si 0.200633 0.770084 0.984456
Si 0.196004 0.430855 0.987486
C 0.100628 0.218006 0.430632
C 0.764201 0.888955 0.420486
C 0.10472 0.891018 0.430049
C 0.86806 0.772001 0.668872
C 0.202969 0.0991763 0.678977
C 0.862066 0.0962647 0.669348
C 0.0879263 0.211589 0.927242
C 0.754399 0.880579 0.915742
C 0.092883 0.886127 0.927596
C 0.881171 0.781296 0.170912
C 0.216689 0.108721 0.184193
C 0.875817 0.104945 0.172754
C 0.103474 0.554956 0.431173
C 0.431733 0.549896 0.426706
C 0.435654 0.890956 0.425754
C 0.865628 0.435028 0.66906
C 0.535847 0.436409 0.673013
C 0.533828 0.0996848 0.675434
C 0.0903572 0.547963 0.925551
C 0.420966 0.545782 0.921606
C 0.422766 0.880265 0.922945
C 0.878959 0.444118 0.172911
C 0.549537 0.446069 0.177763
C 0.545536 0.106479 0.180202
C 0.429493 0.215237 0.427103
C 0.757177 0.211541 0.424063
C 0.762294 0.550806 0.42285
C 0.535959 0.772953 0.669873
C 0.208192 0.775642 0.676649
C 0.205942 0.436661 0.678818
C 0.417789 0.207519 0.924281
C 0.748696 0.205776 0.918648
C 0.748722 0.543102 0.918293
C 0.55225 0.781843 0.176967
C 0.219385 0.782989 0.179701
C 0.220041 0.448063 0.181104
