data_none

_audit_creation_method generated by ABACUS

_cell_length_a 9.55494
_cell_length_b 9.26765
_cell_length_c 10.2312
_cell_angle_alpha 89.6758
_cell_angle_beta 89.5573
_cell_angle_gamma 120.604

_symmetry_space_group_name_H-M 
_symmetry_Int_Tables_number 

loop_
_atom_site_label
_atom_site_fract_x
_atom_site_fract_y
_atom_site_fract_z
Si 0.109918 0.22326 0.247442
Si 0.767763 0.893315 0.24292
Si 0.120952 0.897676 0.245097
Si 0.872574 0.780508 0.491692
Si 0.212866 0.107402 0.49558
Si 0.863437 0.10661 0.49268
Si 0.105643 0.217225 0.744354
Si 0.765679 0.891553 0.741513
Si 0.116736 0.891733 0.742992
Si 0.867429 0.775284 0.988113
Si 0.210506 0.104066 0.992376
Si 0.857423 0.101499 0.991094
Si 0.113282 0.559481 0.247198
Si 0.438042 0.557634 0.245785
Si 0.444913 0.895247 0.244905
Si 0.866433 0.442364 0.493736
Si 0.541801 0.443582 0.493572
Si 0.538602 0.106906 0.495941
Si 0.110738 0.555789 0.742817
Si 0.433043 0.554025 0.744675
Si 0.440765 0.892716 0.740913
Si 0.863571 0.441128 0.988594
Si 0.538392 0.43949 0.990078
Si 0.532444 0.101686 0.991648
Si 0.432904 0.220209 0.24469
Si 0.756742 0.21953 0.245201
Si 0.760697 0.556318 0.245124
Si 0.548189 0.780527 0.492979
Si 0.223517 0.782064 0.492298
Si 0.218758 0.443575 0.495184
Si 0.428509 0.216337 0.743514
Si 0.753456 0.216504 0.740907
Si 0.759415 0.55442 0.739986
Si 0.54297 0.775919 0.990771
Si 0.219689 0.777784 0.990221
Si 0.215412 0.4409 0.991253
C 0.107195 0.220806 0.43298
C 0.765982 0.89255 0.430432
C 0.117204 0.893915 0.431902
C 0.870034 0.778419 0.677261
C 0.211834 0.108956 0.682643
C 0.860887 0.104358 0.68081
C 0.105227 0.218992 0.93159
C 0.761497 0.88917 0.928023
C 0.115812 0.891509 0.927915
C 0.875574 0.781031 0.181344
C 0.216351 0.108848 0.186398
C 0.864599 0.106684 0.18348
C 0.113403 0.560163 0.434163
C 0.438298 0.557868 0.433202
C 0.443801 0.895826 0.431599
C 0.86477 0.44058 0.679898
C 0.540405 0.442522 0.680336
C 0.536576 0.104976 0.681077
C 0.108712 0.554334 0.930272
C 0.435045 0.554471 0.929852
C 0.438882 0.891493 0.928751
C 0.869789 0.445029 0.18299
C 0.543856 0.445241 0.184319
C 0.539513 0.108585 0.184447
C 0.430817 0.220105 0.433967
C 0.756522 0.219149 0.432385
C 0.759026 0.553804 0.43263
C 0.546717 0.780763 0.678808
C 0.221802 0.780259 0.682018
C 0.2165 0.442723 0.681586
C 0.4291 0.216083 0.928959
C 0.752668 0.215549 0.929761
C 0.755955 0.551396 0.927965
C 0.551196 0.784063 0.183101
C 0.225728 0.783221 0.184449
C 0.220499 0.447027 0.185163
