data_none

_audit_creation_method generated by ABACUS

_cell_length_a 9.39316
_cell_length_b 9.39316
_cell_length_c 10.2759
_cell_angle_alpha 90
_cell_angle_beta 90
_cell_angle_gamma 120

_symmetry_space_group_name_H-M 
_symmetry_Int_Tables_number 

loop_
_atom_site_label
_atom_site_fract_x
_atom_site_fract_y
_atom_site_fract_z
Si 0.111111 0.222222 0.249765
Si 0.777778 0.888889 0.249765
Si 0.111111 0.888889 0.249765
Si 0.888889 0.777778 0.499763
Si 0.222222 0.111111 0.499763
Si 0.888889 0.111111 0.499763
Si 0.111111 0.222222 0.749766
Si 0.777778 0.888889 0.749766
Si 0.111111 0.888889 0.749766
Si 0.888889 0.777778 0.999768
Si 0.222222 0.111111 0.999768
Si 0.888889 0.111111 0.999768
Si 0.111111 0.555555 0.249765
Si 0.444445 0.555556 0.249765
Si 0.444444 0.888889 0.249765
Si 0.888889 0.444445 0.499763
Si 0.555555 0.444444 0.499763
Si 0.555556 0.111111 0.499763
Si 0.111111 0.555555 0.749766
Si 0.444445 0.555556 0.749766
Si 0.444444 0.888889 0.749766
Si 0.888889 0.444445 0.999768
Si 0.555555 0.444444 0.999768
Si 0.555556 0.111111 0.999768
Si 0.444444 0.222222 0.249765
Si 0.777778 0.222222 0.249765
Si 0.777778 0.555556 0.249765
Si 0.555556 0.777778 0.499763
Si 0.222222 0.777778 0.499763
Si 0.222222 0.444444 0.499763
Si 0.444444 0.222222 0.749766
Si 0.777778 0.222222 0.749766
Si 0.777778 0.555556 0.749766
Si 0.555556 0.777778 0.999768
Si 0.222222 0.777778 0.999768
Si 0.222222 0.444444 0.999768
C 0.111111 0.222222 0.437732
C 0.777778 0.888889 0.437732
C 0.111111 0.888889 0.437732
C 0.888889 0.777778 0.687734
C 0.222222 0.111111 0.687734
C 0.888889 0.111111 0.687734
C 0.111111 0.222222 0.937737
C 0.777778 0.888889 0.937737
C 0.111111 0.888889 0.937737
C 0.888889 0.777778 0.187735
C 0.222222 0.111111 0.187735
C 0.888889 0.111111 0.187735
C 0.111111 0.555555 0.437732
C 0.444445 0.555556 0.437732
C 0.444444 0.888889 0.437732
C 0.888889 0.444445 0.687734
C 0.555555 0.444444 0.687734
C 0.555556 0.111111 0.687734
C 0.111111 0.555555 0.937737
C 0.444445 0.555556 0.937737
C 0.444444 0.888889 0.937737
C 0.888889 0.444445 0.187735
C 0.555555 0.444444 0.187735
C 0.555556 0.111111 0.187735
C 0.444444 0.222222 0.437732
C 0.777778 0.222222 0.437732
C 0.777778 0.555556 0.437732
C 0.555556 0.777778 0.687734
C 0.222222 0.777778 0.687734
C 0.222222 0.444444 0.687734
C 0.444444 0.222222 0.937737
C 0.777778 0.222222 0.937737
C 0.777778 0.555556 0.937737
C 0.555556 0.777778 0.187735
C 0.222222 0.777778 0.187735
C 0.222222 0.444444 0.187735
