data_none

_audit_creation_method generated by ABACUS

_cell_length_a 8.94087
_cell_length_b 8.92079
_cell_length_c 8.86641
_cell_angle_alpha 90.3476
_cell_angle_beta 89.757
_cell_angle_gamma 89.9521

_symmetry_space_group_name_H-M 
_symmetry_Int_Tables_number 

loop_
_atom_site_label
_atom_site_fract_x
_atom_site_fract_y
_atom_site_fract_z
Si 0.371012 0.127398 0.375581
Si 0.36904 0.12561 0.875365
Si 0.371989 0.622707 0.377548
Si 0.368525 0.62544 0.87632
Si 0.868869 0.126635 0.372711
Si 0.868586 0.126337 0.873839
Si 0.867183 0.621801 0.374689
Si 0.865521 0.624893 0.876322
Si 0.372423 0.372627 0.12474
Si 0.368065 0.378166 0.625505
Si 0.37215 0.870953 0.127256
Si 0.370424 0.87018 0.628345
Si 0.867507 0.373073 0.124852
Si 0.867413 0.373265 0.625625
Si 0.870762 0.869368 0.125675
Si 0.866747 0.871456 0.626329
Si 0.122998 0.124787 0.124501
Si 0.121132 0.127838 0.624611
Si 0.124722 0.620121 0.126324
Si 0.12254 0.622518 0.624731
Si 0.621472 0.125822 0.124775
Si 0.618474 0.125477 0.624514
Si 0.618446 0.619475 0.126809
Si 0.619004 0.622936 0.626984
Si 0.122959 0.374004 0.376205
Si 0.122081 0.375198 0.87709
Si 0.122424 0.871539 0.376306
Si 0.121871 0.872702 0.877109
Si 0.616577 0.372819 0.375198
Si 0.618121 0.375744 0.873934
Si 0.61733 0.871437 0.376291
Si 0.619637 0.87251 0.877801
C 0.993359 0.998711 0.997004
C 0.991313 0.00278428 0.497199
C 0.990758 0.497391 0.999887
C 0.991877 0.499097 0.499395
C 0.497898 0.99926 0.00094523
C 0.495455 0.00111647 0.499447
C 0.494737 0.498752 0.00193629
C 0.495045 0.499696 0.500578
C 0.991729 0.250595 0.249685
C 0.989104 0.249062 0.749783
C 0.992515 0.746195 0.251458
C 0.989489 0.748591 0.749708
C 0.495472 0.248729 0.248017
C 0.494124 0.251343 0.750424
C 0.495634 0.746579 0.250753
C 0.494677 0.749528 0.74975
C 0.247381 0.000616117 0.25064
C 0.244966 0.00306066 0.751375
C 0.248142 0.497798 0.252385
C 0.246366 0.499838 0.75032
C 0.743421 0.000500098 0.250476
C 0.742743 0.003096 0.746886
C 0.745288 0.497499 0.249976
C 0.742262 0.49838 0.749616
C 0.246879 0.24689 0.00081668
C 0.247715 0.249968 0.499258
C 0.247739 0.744346 0.000869374
C 0.246549 0.74509 0.502845
C 0.744074 0.249507 0.999842
C 0.743094 0.249376 0.500728
C 0.743711 0.745677 0.00143274
C 0.741514 0.746644 0.499497
