data_none

_audit_creation_method generated by ABACUS

_cell_length_a 9.09407
_cell_length_b 9.53201
_cell_length_c 10.2896
_cell_angle_alpha 88.6553
_cell_angle_beta 90.549
_cell_angle_gamma 119.622

_symmetry_space_group_name_H-M 
_symmetry_Int_Tables_number 

loop_
_atom_site_label
_atom_site_fract_x
_atom_site_fract_y
_atom_site_fract_z
Si 0.109937 0.213294 0.244518
Si 0.782166 0.863265 0.240362
Si 0.0969445 0.856881 0.237275
Si 0.898869 0.756013 0.489707
Si 0.224673 0.102623 0.493777
Si 0.913612 0.112233 0.496091
Si 0.10893 0.205294 0.739283
Si 0.782299 0.858148 0.736594
Si 0.0959387 0.848762 0.732376
Si 0.896766 0.746664 0.983708
Si 0.225456 0.096333 0.987685
Si 0.910058 0.103783 0.991778
Si 0.100827 0.534859 0.242341
Si 0.444618 0.538126 0.242961
Si 0.440075 0.86024 0.24002
Si 0.904141 0.432197 0.494056
Si 0.560605 0.428771 0.49152
Si 0.568867 0.106868 0.497063
Si 0.101915 0.527223 0.734827
Si 0.443455 0.530965 0.739476
Si 0.438865 0.85464 0.733934
Si 0.904394 0.428091 0.986679
Si 0.561147 0.422028 0.985026
Si 0.565311 0.0982623 0.989975
Si 0.451484 0.215198 0.244941
Si 0.794524 0.219755 0.248101
Si 0.786868 0.541657 0.245324
Si 0.555264 0.750778 0.488401
Si 0.210933 0.7476 0.485717
Si 0.219477 0.423939 0.491157
Si 0.451138 0.20882 0.740831
Si 0.794427 0.213612 0.740712
Si 0.788846 0.53594 0.737586
Si 0.553009 0.74289 0.983467
Si 0.210419 0.739912 0.979729
Si 0.218683 0.418249 0.984271
C 0.107673 0.208869 0.430095
C 0.78138 0.861565 0.427181
C 0.0944371 0.853343 0.42371
C 0.89808 0.753465 0.674311
C 0.225006 0.102946 0.679435
C 0.91243 0.108819 0.683026
C 0.109153 0.204777 0.926066
C 0.779774 0.854631 0.921555
C 0.0954373 0.846873 0.916293
C 0.899928 0.75822 0.18149
C 0.225427 0.106166 0.186056
C 0.912017 0.114271 0.188698
C 0.102115 0.533942 0.428182
C 0.447121 0.537199 0.429428
C 0.440115 0.859586 0.425593
C 0.903482 0.429541 0.679466
C 0.560925 0.426655 0.67682
C 0.568787 0.104386 0.680719
C 0.100928 0.525363 0.921885
C 0.446449 0.529606 0.92384
C 0.438007 0.852712 0.919609
C 0.905418 0.437157 0.185699
C 0.561098 0.431868 0.183641
C 0.568717 0.111547 0.186532
C 0.450468 0.214402 0.432646
C 0.795713 0.218508 0.434212
C 0.786724 0.538257 0.431625
C 0.554519 0.749548 0.673002
C 0.210825 0.744155 0.673959
C 0.217188 0.421424 0.676098
C 0.453161 0.20765 0.925145
C 0.795069 0.21182 0.929082
C 0.786055 0.532272 0.924625
C 0.556449 0.755907 0.180599
C 0.210775 0.750119 0.178618
C 0.218272 0.428746 0.182577
